REMARK  Name = ZINC000025835041
REMARK                            x       y       z     vdW  Elec       q    Type
REMARK                         _______ _______ _______ _____ _____    ______ ____
ROOT
ATOM      1  C   LIG    1       -1.685   0.828   0.346  0.00  0.00    +0.069 C 
ATOM      2  C   LIG    1       -0.713  -0.307   0.150  0.00  0.00    +0.082 A 
ATOM      3  C   LIG    1        0.144  -0.833   1.129  0.00  0.00    +0.078 A 
ATOM      4  C   LIG    1        0.854  -1.842   0.563  0.00  0.00    +0.063 A 
ATOM      5  C   LIG    1        1.892  -2.693   1.246  0.00  0.00    +0.068 C 
ATOM      6  N   LIG    1        0.462  -1.940  -0.737  0.00  0.00    -0.235 N 
ATOM      7  N   LIG    1       -0.519  -0.966  -0.964  0.00  0.00    -0.170 NA
ENDROOT
BRANCH   6   8
ATOM      8  C   LIG    1        0.952  -2.853  -1.680  0.00  0.00    +0.066 A 
ATOM      9  C   LIG    1        2.285  -3.239  -1.646  0.00  0.00    +0.028 A 
ATOM     10  C   LIG    1        2.766  -4.138  -2.577  0.00  0.00    +0.002 A 
ATOM     11  C   LIG    1        1.921  -4.654  -3.543  0.00  0.00    +0.000 A 
ATOM     12  C   LIG    1        0.593  -4.272  -3.579  0.00  0.00    +0.002 A 
ATOM     13  C   LIG    1        0.105  -3.377  -2.647  0.00  0.00    +0.028 A 
ENDBRANCH   6   8
BRANCH   3  14
ATOM     14  N   LIG    1        0.242  -0.398   2.464  0.00  0.00    -0.282 N 
ATOM     15  H   LIG    1        0.155  -1.036   3.190  0.00  0.00    +0.155 HD
ATOM     16  C   LIG    1        0.458   0.905   2.734  0.00  0.00    +0.231 C 
ATOM     17  O   LIG    1        0.460   1.718   1.835  0.00  0.00    -0.274 OA
BRANCH  16  18
ATOM     18  C   LIG    1        0.698   1.350   4.154  0.00  0.00    +0.181 C 
BRANCH  18  19
ATOM     19  N   LIG    1        0.905   2.804   4.182  0.00  0.00    -0.289 NA
ATOM     20  C   LIG    1        1.374   3.244   5.504  0.00  0.00    +0.116 C 
ATOM     21  C   LIG    1        1.634   4.753   5.472  0.00  0.00    +0.129 C 
ATOM     22  C   LIG    1        2.046   5.231   6.866  0.00  0.00    +0.039 C 
ATOM     23  O   LIG    1        0.439   5.428   5.069  0.00  0.00    -0.374 OA
ATOM     24  C   LIG    1       -0.045   5.024   3.785  0.00  0.00    +0.175 C 
ATOM     25  C   LIG    1       -0.322   3.519   3.801  0.00  0.00    +0.113 C 
ENDBRANCH  18  19
ENDBRANCH  16  18
ENDBRANCH   3  14
TORSDOF 4
