REMARK  Name = ZINC000069618004
REMARK                            x       y       z     vdW  Elec       q    Type
REMARK                         _______ _______ _______ _____ _____    ______ ____
ROOT
ATOM      1  N   LIG    1       -0.240  -6.876   3.009  0.00  0.00    -0.299 N 
ATOM      2  C   LIG    1       -1.399  -7.462   3.370  0.00  0.00    +0.304 C 
ATOM      3  N   LIG    1       -2.498  -6.709   3.578  0.00  0.00    -0.268 N 
ATOM      4  H   LIG    1       -2.438  -5.742   3.535  0.00  0.00    +0.156 HD
ATOM      5  O   LIG    1       -1.454  -8.669   3.508  0.00  0.00    -0.253 OA
ATOM      6  H   LIG    1       -0.196  -5.914   2.900  0.00  0.00    +0.150 HD
ENDROOT
BRANCH   3   7
ATOM      7  C   LIG    1       -3.726  -7.325   3.858  0.00  0.00    +0.054 A 
ATOM      8  C   LIG    1       -3.771  -8.491   4.605  0.00  0.00    +0.038 A 
ATOM      9  C   LIG    1       -5.023  -9.061   4.859  0.00  0.00    +0.040 A 
ATOM     10  C   LIG    1       -5.473 -10.244   5.584  0.00  0.00    +0.144 A 
ATOM     11  N   LIG    1       -6.771 -10.296   5.490  0.00  0.00    -0.177 NA
ATOM     12  N   LIG    1       -7.242  -9.214   4.740  0.00  0.00    -0.244 N 
ATOM     13  C   LIG    1       -6.180  -8.444   4.343  0.00  0.00    +0.159 A 
ATOM     14  N   LIG    1       -6.078  -7.331   3.629  0.00  0.00    -0.234 NA
ATOM     15  C   LIG    1       -4.914  -6.773   3.381  0.00  0.00    +0.136 A 
BRANCH  12  16
ATOM     16  C   LIG    1       -8.648  -8.947   4.427  0.00  0.00    +0.103 C 
ATOM     17  C   LIG    1       -9.434  -8.766   5.727  0.00  0.00    +0.032 C 
ATOM     18  C   LIG    1       -9.228 -10.123   3.639  0.00  0.00    +0.032 C 
ENDBRANCH  12  16
ENDBRANCH   3   7
BRANCH   1  19
ATOM     19  C   LIG    1        0.954  -7.694   2.783  0.00  0.00    +0.115 C 
BRANCH  19  20
ATOM     20  C   LIG    1        2.124  -6.791   2.387  0.00  0.00    +0.117 C 
BRANCH  20  21
ATOM     21  C   LIG    1        3.352  -7.632   2.154  0.00  0.00    +0.229 A 
ATOM     22  O   LIG    1        4.270  -7.970   3.065  0.00  0.00    -0.338 OA
ATOM     23  N   LIG    1        5.129  -8.653   2.550  0.00  0.00    -0.062 NA
ATOM     24  C   LIG    1        4.870  -8.826   1.288  0.00  0.00    +0.169 A 
ATOM     25  C   LIG    1        5.699  -9.613   0.307  0.00  0.00    +0.091 C 
ATOM     26  N   LIG    1        3.728  -8.168   1.018  0.00  0.00    -0.196 NA
ENDBRANCH  20  21
ENDBRANCH  19  20
ENDBRANCH   1  19
TORSDOF 5
