REMARK  Name = ZINC000095991764
REMARK                            x       y       z     vdW  Elec       q    Type
REMARK                         _______ _______ _______ _____ _____    ______ ____
ROOT
ATOM      1  C   LIG    1        2.114  -0.605   1.173  0.00  0.00    +0.066 A 
ATOM      2  C   LIG    1        2.891  -1.043   2.195  0.00  0.00    +0.131 A 
ATOM      3  N   LIG    1        4.183  -1.003   1.775  0.00  0.00    -0.261 N 
ATOM      4  N   LIG    1        4.191  -0.526   0.458  0.00  0.00    -0.177 NA
ATOM      5  C   LIG    1        2.956  -0.293   0.096  0.00  0.00    +0.157 A 
ENDROOT
BRANCH   1   6
ATOM      6  N   LIG    1        0.711  -0.489   1.189  0.00  0.00    -0.335 N 
ATOM      7  H   LIG    1        0.213  -0.731   1.986  0.00  0.00    +0.147 HD
BRANCH   6   8
ATOM      8  C   LIG    1        0.002  -0.004   0.002  0.00  0.00    +0.100 C 
ATOM      9  C   LIG    1       -0.019   1.526   0.010  0.00  0.00    +0.033 C 
BRANCH   8  10
ATOM     10  C   LIG    1       -1.412  -0.526   0.013  0.00  0.00    +0.008 A 
ATOM     11  C   LIG    1       -2.015  -0.864   1.209  0.00  0.00    +0.008 A 
ATOM     12  C   LIG    1       -3.312  -1.343   1.219  0.00  0.00    +0.000 A 
ATOM     13  C   LIG    1       -4.007  -1.484   0.033  0.00  0.00    +0.003 A 
ATOM     14  C   LIG    1       -3.405  -1.147  -1.165  0.00  0.00    +0.039 A 
ATOM     15  C   LIG    1       -2.109  -0.661  -1.176  0.00  0.00    +0.128 A 
ATOM     16  F   LIG    1       -1.520  -0.331  -2.346  0.00  0.00    -0.205 F 
ENDBRANCH   8  10
ENDBRANCH   6   8
ENDBRANCH   1   6
BRANCH   3  17
ATOM     17  C   LIG    1        5.358  -1.390   2.559  0.00  0.00    +0.239 C 
BRANCH  17  18
ATOM     18  C   LIG    1        6.149  -2.426   1.802  0.00  0.00    +0.237 C 
ATOM     19  N   LIG    1        7.279  -2.933   2.334  0.00  0.00    -0.296 N 
ATOM     20  C   LIG    1        7.757  -2.494   3.655  0.00  0.00    +0.136 C 
ATOM     21  C   LIG    1        8.042  -3.739   4.504  0.00  0.00    +0.179 C 
ATOM     22  O   LIG    1        8.902  -4.618   3.776  0.00  0.00    -0.377 OA
ATOM     23  C   LIG    1        8.339  -5.115   2.560  0.00  0.00    +0.179 C 
ATOM     24  C   LIG    1        8.067  -3.946   1.614  0.00  0.00    +0.136 C 
ATOM     25  O   LIG    1        5.768  -2.804   0.715  0.00  0.00    -0.274 OA
ENDBRANCH  17  18
ENDBRANCH   3  17
TORSDOF 5
