REMARK  Name = ZINC000194246534
REMARK                            x       y       z     vdW  Elec       q    Type
REMARK                         _______ _______ _______ _____ _____    ______ ____
ROOT
ATOM      1  O   LIG    1        0.002  -0.004   0.002  0.00  0.00    -0.272 OA
ATOM      2  C   LIG    1       -0.014   1.209   0.009  0.00  0.00    +0.255 C 
ATOM      3  N   LIG    1       -1.191   1.867   0.018  0.00  0.00    -0.280 N 
ATOM      4  H   LIG    1       -1.204   2.837   0.023  0.00  0.00    +0.155 HD
ENDROOT
BRANCH   3   5
ATOM      5  C   LIG    1       -2.400   1.147   0.020  0.00  0.00    +0.071 A 
ATOM      6  C   LIG    1       -3.648   1.680   0.023  0.00  0.00    +0.128 A 
ATOM      7  N   LIG    1       -4.534   0.650   0.024  0.00  0.00    -0.283 N 
ATOM      8  H   LIG    1       -5.501   0.729   0.026  0.00  0.00    +0.188 HD
ATOM      9  N   LIG    1       -3.804  -0.545   0.021  0.00  0.00    -0.180 NA
ATOM     10  C   LIG    1       -2.530  -0.250   0.012  0.00  0.00    +0.157 A 
ENDBRANCH   3   5
BRANCH   2  11
ATOM     11  C   LIG    1        1.280   1.980   0.001  0.00  0.00    +0.324 C 
BRANCH  11  12
ATOM     12  O   LIG    1        2.379   1.066  -0.015  0.00  0.00    -0.483 OA
BRANCH  12  13
ATOM     13  C   LIG    1        3.627   1.603  -0.024  0.00  0.00    +0.122 A 
ATOM     14  C   LIG    1        3.792   2.980  -0.012  0.00  0.00    +0.046 A 
ATOM     15  C   LIG    1        5.062   3.523  -0.021  0.00  0.00    +0.005 A 
ATOM     16  C   LIG    1        6.169   2.696  -0.042  0.00  0.00    +0.014 A 
ATOM     17  C   LIG    1        6.008   1.322  -0.053  0.00  0.00    +0.017 A 
ATOM     18  I   LIG    1        7.689   0.071  -0.085  0.00  0.00    -0.044 I 
ATOM     19  C   LIG    1        4.740   0.774  -0.039  0.00  0.00    +0.060 A 
ENDBRANCH  12  13
ENDBRANCH  11  12
ENDBRANCH   2  11
TORSDOF 4
