REMARK  Name = ZINC000012974319
REMARK                            x       y       z     vdW  Elec       q    Type
REMARK                         _______ _______ _______ _____ _____    ______ ____
ROOT
ATOM      1  N   LIG    1        1.263  -2.981  -0.206  0.00  0.00    -0.257 N 
ATOM      2  C   LIG    1        2.602  -2.916   0.057  0.00  0.00    +0.024 C 
ATOM      3  C   LIG    1        3.077  -2.914   1.487  0.00  0.00    +0.061 C 
ATOM      4  C   LIG    1        3.506  -2.862  -0.944  0.00  0.00    +0.078 C 
ATOM      5  C   LIG    1        2.985  -2.865  -2.367  0.00  0.00    +0.143 C 
ATOM      6  N   LIG    1        1.524  -2.933  -2.542  0.00  0.00    -0.288 N 
ATOM      7  H   LIG    1        1.130  -2.939  -3.429  0.00  0.00    +0.151 HD
ATOM      8  C   LIG    1        0.748  -2.987  -1.442  0.00  0.00    +0.307 C 
ATOM      9  O   LIG    1       -0.459  -3.043  -1.576  0.00  0.00    -0.252 OA
ENDROOT
BRANCH   5  10
ATOM     10  C   LIG    1        3.477  -1.612  -3.044  0.00  0.00    -0.022 A 
ATOM     11  C   LIG    1        2.748  -0.441  -2.943  0.00  0.00    +0.007 A 
ATOM     12  C   LIG    1        3.199   0.709  -3.564  0.00  0.00    +0.020 A 
ATOM     13  C   LIG    1        4.378   0.688  -4.287  0.00  0.00    +0.041 A 
ATOM     14  C   LIG    1        5.106  -0.484  -4.388  0.00  0.00    +0.020 A 
ATOM     15 CL   LIG    1        4.945   2.132  -5.066  0.00  0.00    -0.084 Cl
ATOM     16  C   LIG    1        4.658  -1.632  -3.761  0.00  0.00    +0.007 A 
ENDBRANCH   5  10
BRANCH   4  17
ATOM     17  C   LIG    1        4.893  -2.799  -0.674  0.00  0.00    +0.339 C 
ATOM     18  O   LIG    1        5.285  -2.681   0.472  0.00  0.00    -0.245 OA
BRANCH  17  19
ATOM     19  O   LIG    1        5.782  -2.870  -1.687  0.00  0.00    -0.465 OA
ATOM     20  C   LIG    1        7.167  -2.800  -1.341  0.00  0.00    +0.280 C 
ENDBRANCH  17  19
ENDBRANCH   4  17
BRANCH   1  21
ATOM     21  C   LIG    1        0.338  -3.043   0.929  0.00  0.00    +0.143 C 
BRANCH  21  22
ATOM     22  C   LIG    1        0.049  -1.626   1.428  0.00  0.00    +0.179 C 
BRANCH  22  23
ATOM     23  O   LIG    1       -0.645  -0.896   0.414  0.00  0.00    -0.381 OA
ATOM     24  C   LIG    1       -0.965   0.448   0.781  0.00  0.00    +0.194 C 
ENDBRANCH  22  23
ENDBRANCH  21  22
ENDBRANCH   1  21
TORSDOF 6
