REMARK  Name = ZINC000069617865
REMARK                            x       y       z     vdW  Elec       q    Type
REMARK                         _______ _______ _______ _____ _____    ______ ____
ROOT
ATOM      1  C   LIG    1        1.468  -0.168   3.002  0.00  0.00    +0.113 C 
ENDROOT
BRANCH   1   2
ATOM      2  N   LIG    1        1.469   0.294   4.393  0.00  0.00    -0.194 NA
ATOM      3  H   LIG    1        0.656   0.646   4.787  0.00  0.00    +0.148 HD
BRANCH   2   4
ATOM      4  S   LIG    1        2.858   0.214   5.291  0.00  0.00    +0.033 S 
ATOM      5  O   LIG    1        2.480   0.713   6.566  0.00  0.00    -0.158 OA
ATOM      6  O   LIG    1        3.302  -1.126   5.131  0.00  0.00    -0.158 OA
BRANCH   4   7
ATOM      7  C   LIG    1        3.995   1.364   4.468  0.00  0.00    +0.220 C 
BRANCH   7   8
ATOM      8  C   LIG    1        5.311   1.379   5.202  0.00  0.00    -0.025 A 
ATOM      9  C   LIG    1        5.515   2.273   6.237  0.00  0.00    +0.005 A 
ATOM     10  C   LIG    1        6.722   2.287   6.910  0.00  0.00    +0.000 A 
ATOM     11  C   LIG    1        7.726   1.408   6.549  0.00  0.00    +0.000 A 
ATOM     12  C   LIG    1        7.521   0.514   5.514  0.00  0.00    +0.000 A 
ATOM     13  C   LIG    1        6.313   0.496   4.844  0.00  0.00    +0.005 A 
ENDBRANCH   7   8
ENDBRANCH   4   7
ENDBRANCH   2   4
ENDBRANCH   1   2
BRANCH   1  14
ATOM     14  C   LIG    1        0.025  -0.341   2.524  0.00  0.00    +0.091 C 
BRANCH  14  15
ATOM     15  C   LIG    1        0.024  -0.816   1.094  0.00  0.00    +0.112 A 
ATOM     16  N   LIG    1        0.033  -2.063   0.723  0.00  0.00    -0.229 NA
ATOM     17  C   LIG    1        0.028  -2.136  -0.634  0.00  0.00    +0.124 A 
ATOM     18  C   LIG    1        0.009  -0.816  -1.115  0.00  0.00    +0.071 A 
ATOM     19  C   LIG    1       -0.001  -0.577  -2.482  0.00  0.00    +0.028 A 
ATOM     20  C   LIG    1        0.009  -1.636  -3.365  0.00  0.00    +0.005 A 
ATOM     21  C   LIG    1        0.028  -2.942  -2.896  0.00  0.00    +0.040 A 
ATOM     22  C   LIG    1        0.038  -3.200  -1.542  0.00  0.00    +0.151 A 
ATOM     23  F   LIG    1        0.055  -4.474  -1.094  0.00  0.00    -0.203 F 
ATOM     24  N   LIG    1        0.002  -0.004   0.002  0.00  0.00    -0.331 N 
ATOM     25  C   LIG    1       -0.018   1.461   0.010  0.00  0.00    +0.150 C 
ENDBRANCH  14  15
ENDBRANCH   1  14
TORSDOF 6
