REMARK  Name = ZINC000012976012
REMARK                            x       y       z     vdW  Elec       q    Type
REMARK                         _______ _______ _______ _____ _____    ______ ____
ROOT
ATOM      1  C   LIG    1       -6.921  -3.929   0.045  0.00  0.00    +0.230 C 
ATOM      2  N   LIG    1       -8.216  -3.555   0.054  0.00  0.00    -0.252 N 
ATOM      3  C   LIG    1       -9.187  -4.489   0.060  0.00  0.00    +0.250 C 
ATOM      4  O   LIG    1       -8.895  -5.669   0.056  0.00  0.00    -0.270 OA
ATOM      5  H   LIG    1       -8.449  -2.613   0.057  0.00  0.00    +0.158 HD
ATOM      6  O   LIG    1       -6.630  -5.106   0.041  0.00  0.00    -0.274 OA
ENDROOT
BRANCH   3   7
ATOM      7  C   LIG    1      -10.606  -4.080   0.070  0.00  0.00    +0.037 A 
ATOM      8  C   LIG    1      -11.615  -5.046   0.076  0.00  0.00    +0.014 A 
ATOM      9  C   LIG    1      -12.938  -4.657   0.092  0.00  0.00    +0.021 A 
ATOM     10  C   LIG    1      -13.267  -3.311   0.090  0.00  0.00    +0.041 A 
ATOM     11 CL   LIG    1      -14.935  -2.830   0.103  0.00  0.00    -0.084 Cl
ATOM     12  C   LIG    1      -12.271  -2.349   0.079  0.00  0.00    +0.021 A 
ATOM     13  C   LIG    1      -10.944  -2.725   0.069  0.00  0.00    +0.014 A 
ENDBRANCH   3   7
BRANCH   1  14
ATOM     14  C   LIG    1       -5.835  -2.884   0.039  0.00  0.00    +0.172 C 
BRANCH  14  15
ATOM     15  S   LIG    1       -4.214  -3.697   0.026  0.00  0.00    -0.088 S 
BRANCH  15  16
ATOM     16  C   LIG    1       -3.090  -2.340   0.020  0.00  0.00    +0.160 A 
ATOM     17  N   LIG    1       -3.424  -1.088   0.024  0.00  0.00    -0.133 NA
ATOM     18  N   LIG    1       -2.377  -0.192   0.018  0.00  0.00    -0.125 NA
ATOM     19  C   LIG    1       -1.192  -0.715   0.010  0.00  0.00    +0.182 A 
ATOM     20  S   LIG    1       -1.334  -2.470   0.002  0.00  0.00    -0.025 S 
BRANCH  19  21
ATOM     21  N   LIG    1        0.002  -0.004   0.002  0.00  0.00    -0.325 N 
ATOM     22  C   LIG    1       -0.018   1.461   0.010  0.00  0.00    +0.127 C 
ATOM     23  H   LIG    1        0.849  -0.478  -0.009  0.00  0.00    +0.148 HD
ENDBRANCH  19  21
ENDBRANCH  15  16
ENDBRANCH  14  15
ENDBRANCH   1  14
TORSDOF 5
