REMARK  Name = ZINC000082092969
REMARK                            x       y       z     vdW  Elec       q    Type
REMARK                         _______ _______ _______ _____ _____    ______ ____
ROOT
ATOM      1  C   LIG    1       -0.283  -2.252  -4.388  0.00  0.00    +0.092 C 
ATOM      2  C   LIG    1       -1.502  -3.060  -4.842  0.00  0.00    +0.044 C 
ATOM      3  C   LIG    1       -1.294  -4.535  -4.482  0.00  0.00    +0.110 C 
ATOM      4  N   LIG    1       -0.021  -4.987  -5.059  0.00  0.00    -0.297 N 
ATOM      5  C   LIG    1        1.200  -4.227  -4.760  0.00  0.00    +0.110 C 
ATOM      6  C   LIG    1        0.026  -6.079  -5.848  0.00  0.00    +0.247 C 
ATOM      7  O   LIG    1       -0.978  -6.739  -6.032  0.00  0.00    -0.270 OA
ATOM      8  C   LIG    1        0.965  -2.756  -5.117  0.00  0.00    +0.044 C 
ENDROOT
BRANCH   6   9
ATOM      9  C   LIG    1        1.301  -6.475  -6.490  0.00  0.00    +0.040 A 
ATOM     10  C   LIG    1        2.478  -6.582  -5.744  0.00  0.00    +0.033 A 
ATOM     11  C   LIG    1        3.645  -6.954  -6.384  0.00  0.00    +0.111 A 
ATOM     12  N   LIG    1        3.657  -7.206  -7.677  0.00  0.00    -0.263 NA
ATOM     13  C   LIG    1        2.570  -7.118  -8.417  0.00  0.00    +0.111 A 
ATOM     14  C   LIG    1        1.359  -6.758  -7.858  0.00  0.00    +0.033 A 
ENDBRANCH   6   9
BRANCH   1  15
ATOM     15  N   LIG    1       -0.493  -0.836  -4.701  0.00  0.00    -0.326 N 
ATOM     16  C   LIG    1       -0.531   0.195  -3.809  0.00  0.00    +0.161 A 
ATOM     17  N   LIG    1       -0.738   1.310  -4.474  0.00  0.00    -0.234 NA
ATOM     18  C   LIG    1       -0.843   1.032  -5.780  0.00  0.00    +0.131 A 
ATOM     19  C   LIG    1       -0.697  -0.297  -5.945  0.00  0.00    +0.107 A 
BRANCH  16  20
ATOM     20  C   LIG    1       -0.362   0.080  -2.345  0.00  0.00    +0.127 A 
ATOM     21  C   LIG    1       -0.399   1.104  -1.449  0.00  0.00    +0.043 A 
ATOM     22  N   LIG    1       -0.193   0.555  -0.216  0.00  0.00    -0.348 N 
ATOM     23  H   LIG    1       -0.164   1.034   0.627  0.00  0.00    +0.166 HD
ATOM     24  C   LIG    1       -0.044  -0.782  -0.387  0.00  0.00    +0.197 A 
ATOM     25  C   LIG    1       -0.619   2.562  -1.760  0.00  0.00    +0.066 C 
ATOM     26  N   LIG    1       -0.142  -1.060  -1.656  0.00  0.00    -0.233 NA
ENDBRANCH  16  20
ENDBRANCH   1  15
TORSDOF 3
