REMARK  Name = ZINC000009660819
REMARK                            x       y       z     vdW  Elec       q    Type
REMARK                         _______ _______ _______ _____ _____    ______ ____
ROOT
ATOM      1  C   LIG    1       -3.626   2.095   0.031  0.00  0.00    +0.166 C 
ENDROOT
BRANCH   1   2
ATOM      2  N   LIG    1       -4.884   1.346   0.033  0.00  0.00    -0.227 N 
ATOM      3  C   LIG    1       -5.441   1.004   1.210  0.00  0.00    +0.267 A 
ATOM      4  O   LIG    1       -4.904   1.321   2.259  0.00  0.00    -0.266 OA
ATOM      5  C   LIG    1       -6.657   0.285   1.221  0.00  0.00    +0.074 A 
ATOM      6  C   LIG    1       -7.216  -0.044   0.022  0.00  0.00    +0.035 A 
ATOM      7  C   LIG    1       -6.549   0.357  -1.160  0.00  0.00    +0.092 A 
ATOM      8  N   LIG    1       -5.423   1.028  -1.088  0.00  0.00    -0.168 NA
BRANCH   7   9
ATOM      9  C   LIG    1       -7.124   0.017  -2.484  0.00  0.00    +0.002 A 
ATOM     10  C   LIG    1       -8.322  -0.690  -2.566  0.00  0.00    +0.010 A 
ATOM     11  C   LIG    1       -8.853  -1.002  -3.801  0.00  0.00    +0.001 A 
ATOM     12  C   LIG    1       -8.198  -0.616  -4.956  0.00  0.00    +0.000 A 
ATOM     13  C   LIG    1       -7.008   0.086  -4.881  0.00  0.00    +0.001 A 
ATOM     14  C   LIG    1       -6.471   0.409  -3.651  0.00  0.00    +0.010 A 
ENDBRANCH   7   9
ENDBRANCH   1   2
BRANCH   1  15
ATOM     15  C   LIG    1       -2.449   1.117   0.020  0.00  0.00    +0.127 C 
BRANCH  15  16
ATOM     16  N   LIG    1       -1.191   1.867   0.018  0.00  0.00    -0.311 N 
ATOM     17  H   LIG    1       -1.204   2.837   0.023  0.00  0.00    +0.149 HD
ATOM     18  C   LIG    1       -0.014   1.209   0.009  0.00  0.00    +0.251 C 
ATOM     19  O   LIG    1        0.002  -0.004   0.002  0.00  0.00    -0.272 OA
BRANCH  18  20
ATOM     20  C   LIG    1        1.280   1.980   0.001  0.00  0.00    +0.324 C 
BRANCH  20  21
ATOM     21  O   LIG    1        2.379   1.066  -0.015  0.00  0.00    -0.483 OA
BRANCH  21  22
ATOM     22  C   LIG    1        3.627   1.603  -0.024  0.00  0.00    +0.121 A 
ATOM     23  C   LIG    1        3.792   2.980  -0.012  0.00  0.00    +0.045 A 
ATOM     24  C   LIG    1        5.062   3.523  -0.021  0.00  0.00    +0.004 A 
ATOM     25  C   LIG    1        6.169   2.695  -0.042  0.00  0.00    +0.000 A 
ATOM     26  C   LIG    1        6.008   1.321  -0.054  0.00  0.00    +0.004 A 
ATOM     27  C   LIG    1        4.740   0.774  -0.039  0.00  0.00    +0.045 A 
ENDBRANCH  21  22
ENDBRANCH  20  21
ENDBRANCH  18  20
ENDBRANCH  15  16
ENDBRANCH   1  15
TORSDOF 7
