REMARK  Name = ZINC000082097787
REMARK                            x       y       z     vdW  Elec       q    Type
REMARK                         _______ _______ _______ _____ _____    ______ ____
ROOT
ATOM      1  C   LIG    1       -2.228  -5.315   1.224  0.00  0.00    +0.250 C 
ATOM      2  N   LIG    1       -2.908  -5.210   2.382  0.00  0.00    -0.297 N 
ATOM      3  C   LIG    1       -3.287  -6.411   3.140  0.00  0.00    +0.117 C 
ATOM      4  C   LIG    1       -2.775  -6.262   4.580  0.00  0.00    +0.055 C 
ATOM      5  C   LIG    1       -3.306  -4.953   5.171  0.00  0.00    +0.013 C 
ATOM      6  C   LIG    1       -2.784  -3.772   4.350  0.00  0.00    +0.020 C 
ATOM      7  C   LIG    1       -3.291  -3.893   2.909  0.00  0.00    +0.108 C 
ATOM      8  O   LIG    1       -1.989  -6.412   0.756  0.00  0.00    -0.270 OA
ENDROOT
BRANCH   4   9
ATOM      9  C   LIG    1       -3.263  -7.422   5.409  0.00  0.00    +0.053 A 
ATOM     10  C   LIG    1       -2.368  -8.246   6.022  0.00  0.00    +0.093 A 
ATOM     11  C   LIG    1       -2.858  -9.322   6.790  0.00  0.00    +0.252 A 
ATOM     12  O   LIG    1       -2.091 -10.084   7.356  0.00  0.00    -0.268 OA
ATOM     13  N   LIG    1       -4.194  -9.491   6.888  0.00  0.00    -0.311 N 
ATOM     14  H   LIG    1       -4.554 -10.224   7.410  0.00  0.00    +0.170 HD
ATOM     15  C   LIG    1       -5.027  -8.640   6.257  0.00  0.00    +0.107 A 
ATOM     16  C   LIG    1       -6.515  -8.842   6.375  0.00  0.00    +0.086 C 
ATOM     17  N   LIG    1       -4.573  -7.640   5.549  0.00  0.00    -0.239 NA
ENDBRANCH   4   9
BRANCH   1  18
ATOM     18  C   LIG    1       -1.773  -4.101   0.523  0.00  0.00    +0.077 A 
ATOM     19  C   LIG    1       -2.541  -2.997   0.213  0.00  0.00    +0.121 A 
ATOM     20  N   LIG    1       -1.748  -2.119  -0.421  0.00  0.00    -0.270 N 
ATOM     21  N   LIG    1       -0.466  -2.672  -0.520  0.00  0.00    -0.176 NA
ATOM     22  C   LIG    1       -0.468  -3.848   0.043  0.00  0.00    +0.072 A 
ATOM     23  C   LIG    1        0.713  -4.778   0.157  0.00  0.00    +0.068 C 
BRANCH  20  24
ATOM     24  C   LIG    1       -2.156  -0.808  -0.930  0.00  0.00    +0.143 C 
BRANCH  24  25
ATOM     25  C   LIG    1       -1.239   0.272  -0.351  0.00  0.00    +0.020 C 
ATOM     26  C   LIG    1       -1.665   1.642  -0.882  0.00  0.00    +0.005 C 
ENDBRANCH  24  25
ENDBRANCH  20  24
ENDBRANCH   1  18
TORSDOF 4
