REMARK  Name = ZINC000042655477
REMARK                            x       y       z     vdW  Elec       q    Type
REMARK                         _______ _______ _______ _____ _____    ______ ____
ROOT
ATOM      1  O   LIG    1       -0.188  -0.157   0.334  0.00  0.00    -0.270 OA
ATOM      2  C   LIG    1       -0.121   1.054   0.260  0.00  0.00    +0.248 C 
ATOM      3  N   LIG    1        1.080   1.666   0.282  0.00  0.00    -0.308 N 
ATOM      4  H   LIG    1        1.133   2.632   0.223  0.00  0.00    +0.149 HD
ENDROOT
BRANCH   2   5
ATOM      5  C   LIG    1       -1.355   1.856   0.141  0.00  0.00    +0.081 A 
ATOM      6  C   LIG    1       -1.490   3.062   0.837  0.00  0.00    +0.018 A 
ATOM      7  C   LIG    1       -2.667   3.776   0.691  0.00  0.00    +0.021 A 
ATOM      8  C   LIG    1       -3.666   3.282  -0.129  0.00  0.00    +0.113 A 
ATOM      9  N   LIG    1       -3.516   2.142  -0.775  0.00  0.00    -0.235 NA
ATOM     10  C   LIG    1       -2.410   1.424  -0.676  0.00  0.00    +0.168 A 
BRANCH  10  11
ATOM     11  N   LIG    1       -2.297   0.225  -1.379  0.00  0.00    -0.202 N 
ATOM     12  C   LIG    1       -3.305  -0.583  -1.767  0.00  0.00    +0.226 A 
ATOM     13  N   LIG    1       -2.784  -1.603  -2.398  0.00  0.00    -0.222 NA
ATOM     14  C   LIG    1       -1.457  -1.484  -2.434  0.00  0.00    +0.245 A 
ATOM     15  N   LIG    1       -1.112  -0.379  -1.829  0.00  0.00    -0.152 NA
ENDBRANCH  10  11
ENDBRANCH   2   5
BRANCH   3  16
ATOM     16  C   LIG    1        2.305   0.870   0.394  0.00  0.00    +0.145 C 
BRANCH  16  17
ATOM     17  C   LIG    1        3.519   1.801   0.396  0.00  0.00    +0.247 C 
BRANCH  17  18
ATOM     18  O   LIG    1        3.491   2.618   1.567  0.00  0.00    -0.490 OA
BRANCH  18  19
ATOM     19  C   LIG    1        4.507   3.507   1.724  0.00  0.00    +0.121 A 
ATOM     20  C   LIG    1        4.542   4.332   2.839  0.00  0.00    +0.047 A 
ATOM     21  C   LIG    1        5.578   5.232   2.999  0.00  0.00    +0.023 A 
ATOM     22  C   LIG    1        6.575   5.318   2.043  0.00  0.00    +0.041 A 
ATOM     23 CL   LIG    1        7.873   6.453   2.243  0.00  0.00    -0.084 Cl
ATOM     24  C   LIG    1        6.538   4.500   0.927  0.00  0.00    +0.023 A 
ATOM     25  C   LIG    1        5.507   3.595   0.767  0.00  0.00    +0.047 A 
ENDBRANCH  18  19
ENDBRANCH  17  18
ENDBRANCH  16  17
ENDBRANCH   3  16
TORSDOF 6
