REMARK  Name = ZINC000095993965
REMARK                            x       y       z     vdW  Elec       q    Type
REMARK                         _______ _______ _______ _____ _____    ______ ____
ROOT
ATOM      1  N   LIG    1       -0.509   0.603  -3.151  0.00  0.00    -0.163 NA
ATOM      2  C   LIG    1       -1.693   1.365  -2.715  0.00  0.00    +0.111 C 
ATOM      3  C   LIG    1       -2.008   2.319  -3.894  0.00  0.00    +0.019 C 
ATOM      4  C   LIG    1       -0.583   2.696  -4.378  0.00  0.00    +0.022 C 
ATOM      5  C   LIG    1        0.216   1.394  -4.157  0.00  0.00    +0.088 C 
ENDROOT
BRANCH   1   6
ATOM      6  S   LIG    1       -0.064  -0.892  -2.595  0.00  0.00    +0.100 S 
ATOM      7  O   LIG    1       -0.522  -0.973  -1.252  0.00  0.00    -0.141 OA
ATOM      8  O   LIG    1        1.297  -1.068  -2.963  0.00  0.00    -0.141 OA
BRANCH   6   9
ATOM      9  N   LIG    1       -0.930  -2.012  -3.453  0.00  0.00    -0.167 NA
BRANCH   9  10
ATOM     10  C   LIG    1       -2.286  -2.370  -3.031  0.00  0.00    +0.107 C 
ATOM     11  C   LIG    1       -2.236  -3.635  -2.171  0.00  0.00    +0.022 C 
ENDBRANCH   9  10
BRANCH   9  12
ATOM     12  C   LIG    1       -0.340  -2.646  -4.635  0.00  0.00    +0.107 C 
ATOM     13  C   LIG    1       -0.773  -1.886  -5.891  0.00  0.00    +0.022 C 
ENDBRANCH   9  12
ENDBRANCH   6   9
ENDBRANCH   1   6
BRANCH   5  14
ATOM     14  C   LIG    1        1.624   1.725  -3.659  0.00  0.00    +0.100 C 
BRANCH  14  15
ATOM     15  C   LIG    1        2.380   2.457  -4.737  0.00  0.00    +0.171 C 
ATOM     16  O   LIG    1        1.826   2.743  -5.780  0.00  0.00    -0.291 OA
BRANCH  15  17
ATOM     17  C   LIG    1        3.732   2.812  -4.536  0.00  0.00    +0.055 A 
ATOM     18  S   LIG    1        4.706   2.368  -3.141  0.00  0.00    -0.094 S 
ATOM     19  C   LIG    1        6.064   3.186  -3.771  0.00  0.00    +0.046 A 
ATOM     20  C   LIG    1        5.778   3.755  -4.950  0.00  0.00    +0.008 A 
ATOM     21  C   LIG    1        4.494   3.562  -5.394  0.00  0.00    +0.019 A 
ENDBRANCH  15  17
ENDBRANCH  14  15
ENDBRANCH   5  14
TORSDOF 7
