REMARK  Name = ZINC000069617215
REMARK                            x       y       z     vdW  Elec       q    Type
REMARK                         _______ _______ _______ _____ _____    ______ ____
ROOT
ATOM      1  C   LIG    1        0.657  -2.104  -1.120  0.00  0.00    +0.216 C 
ENDROOT
BRANCH   1   2
ATOM      2  C   LIG    1        0.423  -3.092  -0.006  0.00  0.00    +0.021 A 
ATOM      3  C   LIG    1        0.202  -2.642   1.284  0.00  0.00    +0.129 A 
ATOM      4  C   LIG    1       -0.018  -3.549   2.306  0.00  0.00    +0.041 A 
ATOM      5  C   LIG    1       -0.007  -4.905   2.039  0.00  0.00    +0.041 A 
ATOM      6  C   LIG    1        0.220  -5.356   0.750  0.00  0.00    +0.124 A 
ATOM      7  F   LIG    1        0.231  -6.681   0.490  0.00  0.00    -0.205 F 
ATOM      8  F   LIG    1        0.191  -1.316   1.544  0.00  0.00    -0.205 F 
ATOM      9  C   LIG    1        0.435  -4.448  -0.273  0.00  0.00    +0.047 A 
ENDBRANCH   1   2
BRANCH   1  10
ATOM     10  N   LIG    1        1.376  -2.761  -2.214  0.00  0.00    -0.293 N 
ATOM     11  C   LIG    1        2.723  -2.809  -2.203  0.00  0.00    +0.263 C 
ATOM     12  O   LIG    1        3.342  -2.305  -1.286  0.00  0.00    -0.269 OA
ATOM     13  H   LIG    1        0.882  -3.163  -2.946  0.00  0.00    +0.150 HD
BRANCH  11  14
ATOM     14  C   LIG    1        3.444  -3.470  -3.303  0.00  0.00    +0.120 A 
ATOM     15  C   LIG    1        4.816  -3.606  -3.433  0.00  0.00    +0.057 A 
ATOM     16  C   LIG    1        5.006  -4.299  -4.630  0.00  0.00    +0.067 A 
ATOM     17  N   LIG    1        3.828  -4.542  -5.146  0.00  0.00    -0.178 NA
ATOM     18  N   LIG    1        2.895  -4.077  -4.396  0.00  0.00    -0.272 N 
ATOM     19  H   LIG    1        1.945  -4.143  -4.580  0.00  0.00    +0.189 HD
BRANCH  16  20
ATOM     20  C   LIG    1        6.333  -4.698  -5.223  0.00  0.00    +0.040 C 
ATOM     21  C   LIG    1        7.555  -4.669  -4.302  0.00  0.00    +0.010 C 
ATOM     22  C   LIG    1        6.958  -6.008  -4.738  0.00  0.00    +0.010 C 
ENDBRANCH  16  20
ENDBRANCH  11  14
ENDBRANCH   1  10
BRANCH   1  23
ATOM     23  C   LIG    1       -0.667  -1.592  -1.624  0.00  0.00    +0.332 C 
ATOM     24  O   LIG    1       -0.979  -1.760  -2.779  0.00  0.00    -0.248 OA
BRANCH  23  25
ATOM     25  O   LIG    1       -1.500  -0.950  -0.790  0.00  0.00    -0.466 OA
ATOM     26  C   LIG    1       -2.759  -0.485  -1.345  0.00  0.00    +0.280 C 
ENDBRANCH  23  25
ENDBRANCH   1  23
TORSDOF 6
