REMARK  Name = ZINC000095991632
REMARK                            x       y       z     vdW  Elec       q    Type
REMARK                         _______ _______ _______ _____ _____    ______ ____
ROOT
ATOM      1  C   LIG    1        2.415   1.192  -0.018  0.00  0.00    +0.161 C 
ATOM      2  C   LIG    1        3.554   2.070   0.551  0.00  0.00    +0.051 C 
ATOM      3  C   LIG    1        4.135   2.703  -0.733  0.00  0.00    +0.116 C 
ATOM      4  N   LIG    1        3.808   1.766  -1.814  0.00  0.00    -0.270 N 
ATOM      5  C   LIG    1        2.839   0.906  -1.442  0.00  0.00    +0.240 C 
ATOM      6  O   LIG    1        2.377   0.034  -2.146  0.00  0.00    -0.273 OA
ENDROOT
BRANCH   4   7
ATOM      7  C   LIG    1        4.423   1.764  -3.072  0.00  0.00    +0.038 A 
ATOM      8  C   LIG    1        5.328   2.764  -3.404  0.00  0.00    +0.046 A 
ATOM      9  C   LIG    1        5.939   2.757  -4.643  0.00  0.00    +0.078 A 
ATOM     10 CL   LIG    1        7.075   4.003  -5.058  0.00  0.00    -0.081 Cl
ATOM     11  C   LIG    1        5.641   1.760  -5.558  0.00  0.00    +0.142 A 
ATOM     12  C   LIG    1        4.735   0.766  -5.230  0.00  0.00    +0.041 A 
ATOM     13  F   LIG    1        6.235   1.758  -6.772  0.00  0.00    -0.204 F 
ATOM     14  C   LIG    1        4.126   0.766  -3.990  0.00  0.00    +0.026 A 
ENDBRANCH   4   7
BRANCH   1  15
ATOM     15  N   LIG    1        1.145   1.922   0.002  0.00  0.00    -0.300 N 
ATOM     16  H   LIG    1        1.143   2.892   0.013  0.00  0.00    +0.150 HD
ATOM     17  C   LIG    1       -0.021   1.246   0.005  0.00  0.00    +0.246 C 
ATOM     18  O   LIG    1       -0.019   0.031  -0.008  0.00  0.00    -0.270 OA
BRANCH  17  19
ATOM     19  C   LIG    1       -1.302   1.983   0.020  0.00  0.00    +0.055 A 
ATOM     20  C   LIG    1       -1.318   3.378   0.036  0.00  0.00    +0.123 A 
ATOM     21  N   LIG    1       -2.460   4.035   0.042  0.00  0.00    -0.263 NA
ATOM     22  C   LIG    1       -3.623   3.411   0.046  0.00  0.00    +0.111 A 
ATOM     23  C   LIG    1       -3.692   2.030   0.037  0.00  0.00    +0.020 A 
ATOM     24  C   LIG    1       -2.520   1.293   0.023  0.00  0.00    +0.016 A 
ENDBRANCH  17  19
ENDBRANCH   1  15
TORSDOF 3
