REMARK  Name = ZINC000095988783
REMARK                            x       y       z     vdW  Elec       q    Type
REMARK                         _______ _______ _______ _____ _____    ______ ____
ROOT
ATOM      1  N   LIG    1       -0.173   7.934   1.504  0.00  0.00    -0.220 N 
ATOM      2  H   LIG    1        0.686   8.314   1.261  0.00  0.00    +0.173 HD
ENDROOT
BRANCH   1   3
ATOM      3  C   LIG    1       -1.351   8.483   0.992  0.00  0.00    +0.050 A 
ATOM      4  C   LIG    1       -1.833   9.683   1.495  0.00  0.00    +0.050 A 
ATOM      5  C   LIG    1       -3.000  10.228   0.980  0.00  0.00    +0.051 A 
ATOM      6  C   LIG    1       -3.688   9.566  -0.029  0.00  0.00    +0.026 A 
ATOM      7  C   LIG    1       -3.208   8.369  -0.524  0.00  0.00    +0.004 A 
ATOM      8  C   LIG    1       -2.043   7.826  -0.017  0.00  0.00    +0.024 A 
BRANCH   5   9
ATOM      9  N   LIG    1       -3.487  11.444   1.481  0.00  0.00    -0.288 N 
ATOM     10  C   LIG    1       -2.930  12.214   2.458  0.00  0.00    +0.229 A 
ATOM     11  N   LIG    1       -3.701  13.254   2.617  0.00  0.00    -0.138 NA
ATOM     12  N   LIG    1       -4.699  13.188   1.809  0.00  0.00    -0.138 NA
ATOM     13  C   LIG    1       -4.614  12.103   1.087  0.00  0.00    +0.229 A 
ENDBRANCH   5   9
ENDBRANCH   1   3
BRANCH   1  14
ATOM     14  S   LIG    1       -0.242   6.633   2.527  0.00  0.00    +0.047 S 
ATOM     15  O   LIG    1        1.117   6.361   2.841  0.00  0.00    -0.155 OA
ATOM     16  O   LIG    1       -1.037   5.682   1.831  0.00  0.00    -0.155 OA
BRANCH  14  17
ATOM     17  C   LIG    1       -1.122   7.251   3.987  0.00  0.00    +0.223 C 
BRANCH  17  18
ATOM     18  C   LIG    1       -1.161   6.176   5.043  0.00  0.00    -0.025 A 
ATOM     19  C   LIG    1       -0.144   6.091   5.977  0.00  0.00    +0.006 A 
ATOM     20  C   LIG    1       -0.174   5.109   6.946  0.00  0.00    +0.019 A 
ATOM     21  C   LIG    1       -1.233   4.201   6.982  0.00  0.00    +0.052 A 
ATOM     22  C   LIG    1       -2.253   4.289   6.033  0.00  0.00    +0.019 A 
ATOM     23  C   LIG    1       -2.214   5.279   5.073  0.00  0.00    +0.006 A 
BRANCH  21  24
ATOM     24  C   LIG    1       -1.271   3.179   7.985  0.00  0.00    +0.099 C 
ATOM     25  N   LIG    1       -1.300   2.369   8.781  0.00  0.00    -0.191 NA
ENDBRANCH  21  24
ENDBRANCH  17  18
ENDBRANCH  14  17
ENDBRANCH   1  14
TORSDOF 6
