REMARK  Name = ZINC000058194974
REMARK                            x       y       z     vdW  Elec       q    Type
REMARK                         _______ _______ _______ _____ _____    ______ ____
ROOT
ATOM      1  S   LIG    1        4.437   1.699   0.755  0.00  0.00    +0.059 S 
ATOM      2  O   LIG    1        3.744   1.420   1.964  0.00  0.00    -0.153 OA
ATOM      3  O   LIG    1        4.753   3.017   0.328  0.00  0.00    -0.153 OA
ENDROOT
BRANCH   1   4
ATOM      4  C   LIG    1        5.965   0.826   0.844  0.00  0.00    +0.106 A 
ATOM      5  C   LIG    1        6.079  -0.285   1.658  0.00  0.00    +0.029 A 
ATOM      6  C   LIG    1        7.278  -0.971   1.728  0.00  0.00    +0.006 A 
ATOM      7  C   LIG    1        8.362  -0.545   0.983  0.00  0.00    -0.039 A 
ATOM      8  C   LIG    1        9.668  -1.292   1.059  0.00  0.00    +0.044 C 
ATOM      9  C   LIG    1        8.247   0.565   0.168  0.00  0.00    +0.060 A 
ATOM     10  C   LIG    1        7.047   1.248   0.095  0.00  0.00    +0.041 A 
BRANCH   9  11
ATOM     11  C   LIG    1        9.428   1.029  -0.645  0.00  0.00    +0.418 C 
ATOM     12  F   LIG    1       10.488   1.347   0.211  0.00  0.00    -0.166 F 
ATOM     13  F   LIG    1        9.070   2.161  -1.384  0.00  0.00    -0.166 F 
ATOM     14  F   LIG    1        9.824   0.009  -1.517  0.00  0.00    -0.166 F 
ENDBRANCH   9  11
ENDBRANCH   1   4
BRANCH   1  15
ATOM     15  N   LIG    1        3.550   1.012  -0.462  0.00  0.00    -0.183 NA
ATOM     16  H   LIG    1        3.334   1.528  -1.255  0.00  0.00    +0.148 HD
BRANCH  15  17
ATOM     17  C   LIG    1        3.091  -0.374  -0.342  0.00  0.00    +0.182 C 
BRANCH  17  18
ATOM     18  C   LIG    1        2.022  -0.640  -1.371  0.00  0.00    +0.149 A 
ATOM     19  N   LIG    1        0.688  -0.476  -1.203  0.00  0.00    -0.317 N 
ATOM     20  C   LIG    1        0.117  -0.833  -2.379  0.00  0.00    +0.225 A 
ATOM     21  N   LIG    1        1.079  -1.191  -3.185  0.00  0.00    -0.138 NA
ATOM     22  N   LIG    1        2.210  -1.080  -2.585  0.00  0.00    -0.133 NA
BRANCH  19  23
ATOM     23  C   LIG    1        0.002  -0.004   0.002  0.00  0.00    +0.121 C 
ATOM     24  C   LIG    1       -0.019   1.526   0.010  0.00  0.00    +0.027 C 
ENDBRANCH  19  23
ENDBRANCH  17  18
ENDBRANCH  15  17
ENDBRANCH   1  15
TORSDOF 6
