REMARK  Name = ZINC000084692166
REMARK                            x       y       z     vdW  Elec       q    Type
REMARK                         _______ _______ _______ _____ _____    ______ ____
ROOT
ATOM      1  N   LIG    1        1.828  -1.722   5.971  0.00  0.00    -0.295 N 
ATOM      2  C   LIG    1        2.193  -2.484   7.021  0.00  0.00    +0.300 C 
ATOM      3  N   LIG    1        1.278  -2.846   7.941  0.00  0.00    -0.299 N 
ATOM      4  H   LIG    1        0.356  -2.559   7.848  0.00  0.00    +0.150 HD
ATOM      5  O   LIG    1        3.349  -2.845   7.138  0.00  0.00    -0.253 OA
ATOM      6  H   LIG    1        0.907  -1.435   5.878  0.00  0.00    +0.151 HD
ENDROOT
BRANCH   3   7
ATOM      7  C   LIG    1        1.675  -3.675   9.083  0.00  0.00    +0.115 C 
BRANCH   7   8
ATOM      8  C   LIG    1        0.456  -3.940   9.969  0.00  0.00    +0.114 C 
BRANCH   8   9
ATOM      9  C   LIG    1        0.864  -4.792  11.143  0.00  0.00    +0.217 C 
ATOM     10  N   LIG    1       -0.051  -5.154  12.063  0.00  0.00    -0.299 N 
ATOM     11  C   LIG    1        0.305  -6.074  13.152  0.00  0.00    +0.073 C 
ATOM     12  C   LIG    1       -0.071  -5.418  14.489  0.00  0.00    +0.022 C 
ATOM     13  C   LIG    1       -1.549  -5.023  14.459  0.00  0.00    +0.003 C 
ATOM     14  C   LIG    1       -1.784  -4.005  13.340  0.00  0.00    +0.019 C 
ATOM     15  C   LIG    1        1.810  -6.349  13.121  0.00  0.00    +0.028 C 
ATOM     16  C   LIG    1       -1.427  -4.641  11.993  0.00  0.00    +0.108 C 
ATOM     17  O   LIG    1        2.017  -5.152  11.260  0.00  0.00    -0.276 OA
ENDBRANCH   8   9
ENDBRANCH   7   8
ENDBRANCH   3   7
BRANCH   1  18
ATOM     18  C   LIG    1        2.823  -1.329   4.971  0.00  0.00    +0.141 C 
BRANCH  18  19
ATOM     19  C   LIG    1        2.163  -0.486   3.909  0.00  0.00    -0.030 A 
ATOM     20  C   LIG    1        2.105   0.887   4.056  0.00  0.00    +0.009 A 
ATOM     21  C   LIG    1        1.500   1.661   3.084  0.00  0.00    +0.046 A 
ATOM     22  C   LIG    1        0.951   1.059   1.961  0.00  0.00    +0.120 A 
ATOM     23  C   LIG    1        1.006  -0.320   1.820  0.00  0.00    +0.046 A 
ATOM     24  C   LIG    1        1.616  -1.089   2.792  0.00  0.00    +0.009 A 
BRANCH  22  25
ATOM     25  O   LIG    1        0.355   1.818   1.004  0.00  0.00    -0.495 OA
ATOM     26  C   LIG    1        0.336   3.232   1.216  0.00  0.00    +0.277 C 
ENDBRANCH  22  25
ENDBRANCH  18  19
ENDBRANCH   1  18
TORSDOF 6
