REMARK  Name = ZINC000000904522
REMARK                            x       y       z     vdW  Elec       q    Type
REMARK                         _______ _______ _______ _____ _____    ______ ____
ROOT
ATOM      1  C   LIG    1       -5.673  -5.999  -0.007  0.00  0.00    +0.192 A 
ATOM      2  N   LIG    1       -6.983  -6.383  -0.004  0.00  0.00    -0.309 N 
ATOM      3  C   LIG    1       -8.161  -5.512   0.001  0.00  0.00    +0.152 C 
ATOM      4  C   LIG    1       -6.968  -7.751  -0.015  0.00  0.00    +0.138 A 
ATOM      5  N   LIG    1       -5.720  -8.125  -0.015  0.00  0.00    -0.133 NA
ATOM      6  N   LIG    1       -4.951  -7.095  -0.011  0.00  0.00    -0.122 NA
ENDROOT
BRANCH   1   7
ATOM      7  S   LIG    1       -5.067  -4.344  -0.001  0.00  0.00    -0.077 S 
BRANCH   7   8
ATOM      8  C   LIG    1       -3.285  -4.662  -0.010  0.00  0.00    +0.173 C 
BRANCH   8   9
ATOM      9  C   LIG    1       -2.541  -3.352  -0.005  0.00  0.00    +0.229 C 
ATOM     10  O   LIG    1       -3.155  -2.306   0.003  0.00  0.00    -0.275 OA
ATOM     11  N   LIG    1       -1.194  -3.342  -0.011  0.00  0.00    -0.267 N 
ATOM     12  H   LIG    1       -0.703  -4.179  -0.018  0.00  0.00    +0.156 HD
BRANCH  11  13
ATOM     13  C   LIG    1       -0.505  -2.129  -0.007  0.00  0.00    +0.168 A 
ATOM     14  C   LIG    1       -1.071  -0.827   0.002  0.00  0.00    +0.091 A 
ATOM     15  C   LIG    1        0.002  -0.004   0.002  0.00  0.00    +0.136 A 
ATOM     16  C   LIG    1       -0.018   1.503   0.010  0.00  0.00    +0.089 C 
ATOM     17  O   LIG    1        1.088  -0.791  -0.013  0.00  0.00    -0.358 OA
ATOM     18  N   LIG    1        0.792  -1.963  -0.012  0.00  0.00    -0.063 NA
ENDBRANCH  11  13
ENDBRANCH   8   9
ENDBRANCH   7   8
ENDBRANCH   1   7
BRANCH   4  19
ATOM     19  C   LIG    1       -8.171  -8.658  -0.019  0.00  0.00    +0.111 C 
BRANCH  19  20
ATOM     20  C   LIG    1       -8.574  -8.966   1.400  0.00  0.00    -0.040 A 
ATOM     21  C   LIG    1       -9.478  -8.151   2.054  0.00  0.00    +0.004 A 
ATOM     22  C   LIG    1       -9.851  -8.436   3.355  0.00  0.00    +0.000 A 
ATOM     23  C   LIG    1       -9.311  -9.531   4.004  0.00  0.00    +0.000 A 
ATOM     24  C   LIG    1       -8.402 -10.342   3.351  0.00  0.00    +0.000 A 
ATOM     25  C   LIG    1       -8.034 -10.060   2.050  0.00  0.00    +0.004 A 
ENDBRANCH  19  20
ENDBRANCH   4  19
TORSDOF 6
