REMARK  Name = ZINC000356646950
REMARK                            x       y       z     vdW  Elec       q    Type
REMARK                         _______ _______ _______ _____ _____    ______ ____
ROOT
ATOM      1  C   LIG    1       -0.047   1.497   0.015  0.00  0.00    +0.068 C 
ATOM      2  C   LIG    1       -0.010  -0.010   0.003  0.00  0.00    +0.069 A 
ATOM      3  N   LIG    1        0.017  -0.793   1.069  0.00  0.00    -0.232 NA
ATOM      4  C   LIG    1        0.043  -2.070   0.690  0.00  0.00    +0.138 A 
ATOM      5  C   LIG    1        0.075  -3.267   1.428  0.00  0.00    +0.048 A 
ATOM      6  C   LIG    1        0.105  -4.459   0.769  0.00  0.00    +0.020 A 
ATOM      7  C   LIG    1        0.103  -4.476  -0.633  0.00  0.00    +0.035 A 
ATOM      8  C   LIG    1        0.072  -3.314  -1.326  0.00  0.00    +0.108 A 
ATOM      9 BR   LIG    1        0.144  -6.125  -1.558  0.00  0.00    -0.049 Br
ATOM     10  N   LIG    1        0.042  -2.120  -0.675  0.00  0.00    -0.294 N 
ATOM     11  C   LIG    1        0.009  -0.813  -1.126  0.00  0.00    +0.131 A 
ENDROOT
BRANCH  11  12
ATOM     12  C   LIG    1       -0.004  -0.381  -2.476  0.00  0.00    +0.263 C 
ATOM     13  O   LIG    1        1.026  -0.005  -3.005  0.00  0.00    -0.269 OA
ATOM     14  N   LIG    1       -1.157  -0.386  -3.174  0.00  0.00    -0.303 N 
ATOM     15  H   LIG    1       -1.990  -0.613  -2.733  0.00  0.00    +0.150 HD
BRANCH  14  16
ATOM     16  C   LIG    1       -1.152  -0.047  -4.600  0.00  0.00    +0.181 C 
BRANCH  16  17
ATOM     17  C   LIG    1       -2.556  -0.127  -5.140  0.00  0.00    +0.154 A 
ATOM     18  C   LIG    1       -3.464   0.877  -5.189  0.00  0.00    +0.069 A 
ATOM     19  C   LIG    1       -4.602   0.280  -5.779  0.00  0.00    +0.157 A 
ATOM     20  N   LIG    1       -4.285  -0.960  -6.017  0.00  0.00    -0.086 NA
ATOM     21  O   LIG    1       -3.151  -1.203  -5.674  0.00  0.00    -0.358 OA
ENDBRANCH  16  17
ENDBRANCH  14  16
ENDBRANCH  11  12
TORSDOF 3
