REMARK  Name = ZINC000058192933
REMARK                            x       y       z     vdW  Elec       q    Type
REMARK                         _______ _______ _______ _____ _____    ______ ____
ROOT
ATOM      1  C   LIG    1        1.142   0.886  -1.980  0.00  0.00    +0.090 A 
ATOM      2  C   LIG    1        2.476   0.530  -1.907  0.00  0.00    +0.055 A 
ATOM      3  C   LIG    1        3.042  -0.238  -2.905  0.00  0.00    +0.111 A 
ATOM      4  C   LIG    1        2.272  -0.645  -3.988  0.00  0.00    +0.057 A 
ATOM      5  C   LIG    1        0.934  -0.281  -4.061  0.00  0.00    +0.027 A 
ATOM      6  C   LIG    1        0.373   0.484  -3.056  0.00  0.00    +0.029 A 
ENDROOT
BRANCH   1   7
ATOM      7  S   LIG    1        0.421   1.860  -0.700  0.00  0.00    -0.006 S 
ATOM      8  O   LIG    1        1.214   1.576   0.445  0.00  0.00    -0.170 OA
ATOM      9  O   LIG    1       -0.959   1.524  -0.738  0.00  0.00    -0.170 OA
ATOM     10  C   LIG    1        0.674   3.574  -1.240  0.00  0.00    +0.200 C 
ENDBRANCH   1   7
BRANCH   3  11
ATOM     11  S   LIG    1        4.741  -0.697  -2.809  0.00  0.00    -0.004 S 
ATOM     12  O   LIG    1        5.199  -0.095  -1.606  0.00  0.00    -0.170 OA
ATOM     13  C   LIG    1        4.713  -2.503  -2.646  0.00  0.00    +0.200 C 
ATOM     14  O   LIG    1        5.278  -0.318  -4.069  0.00  0.00    -0.170 OA
ENDBRANCH   3  11
BRANCH   4  15
ATOM     15  N   LIG    1        2.844  -1.417  -5.003  0.00  0.00    -0.313 N 
ATOM     16  H   LIG    1        3.744  -1.763  -4.900  0.00  0.00    +0.152 HD
BRANCH  15  17
ATOM     17  C   LIG    1        2.118  -1.692  -6.165  0.00  0.00    +0.031 A 
ATOM     18  C   LIG    1        2.149  -2.964  -6.721  0.00  0.00    +0.023 A 
ATOM     19  C   LIG    1        1.425  -3.234  -7.866  0.00  0.00    +0.002 A 
ATOM     20  C   LIG    1        0.680  -2.235  -8.466  0.00  0.00    +0.000 A 
ATOM     21  C   LIG    1        0.651  -0.966  -7.918  0.00  0.00    +0.002 A 
ATOM     22  C   LIG    1        1.368  -0.691  -6.769  0.00  0.00    +0.023 A 
ENDBRANCH  15  17
ENDBRANCH   4  15
TORSDOF 4
