REMARK  Name = ZINC000277109484
REMARK                            x       y       z     vdW  Elec       q    Type
REMARK                         _______ _______ _______ _____ _____    ______ ____
ROOT
ATOM      1  C   LIG    1        0.701  -2.096   1.103  0.00  0.00    +0.078 A 
ATOM      2  C   LIG    1       -0.318  -2.809   1.739  0.00  0.00    -0.014 A 
ATOM      3  C   LIG    1       -1.477  -2.076   2.363  0.00  0.00    +0.046 C 
ATOM      4  C   LIG    1       -0.266  -4.192   1.783  0.00  0.00    +0.039 A 
ATOM      5  C   LIG    1        0.805  -4.867   1.207  0.00  0.00    +0.025 A 
ATOM      6  C   LIG    1        1.817  -4.163   0.583  0.00  0.00    +0.018 A 
ATOM      7  C   LIG    1        1.772  -2.784   0.527  0.00  0.00    +0.032 A 
ATOM      8 BR   LIG    1        3.160  -1.826  -0.328  0.00  0.00    -0.049 Br
ENDROOT
BRANCH   4   9
ATOM      9  N   LIG    1       -1.288  -4.911   2.414  0.00  0.00    -0.269 N 
ATOM     10  H   LIG    1       -1.727  -4.545   3.197  0.00  0.00    +0.156 HD
ATOM     11  C   LIG    1       -1.663  -6.113   1.932  0.00  0.00    +0.304 C 
ATOM     12  N   LIG    1       -2.707  -6.764   2.482  0.00  0.00    -0.297 N 
ATOM     13  H   LIG    1       -3.188  -6.367   3.226  0.00  0.00    +0.150 HD
ATOM     14  O   LIG    1       -1.060  -6.610   1.001  0.00  0.00    -0.253 OA
BRANCH  12  15
ATOM     15  C   LIG    1       -3.115  -8.070   1.959  0.00  0.00    +0.136 C 
BRANCH  15  16
ATOM     16  C   LIG    1       -4.315  -8.586   2.755  0.00  0.00    +0.129 C 
ATOM     17  C   LIG    1       -4.741  -9.950   2.208  0.00  0.00    +0.039 C 
BRANCH  16  18
ATOM     18  O   LIG    1       -3.953  -8.717   4.131  0.00  0.00    -0.391 OA
ATOM     19  H   LIG    1       -3.221  -9.329   4.289  0.00  0.00    +0.210 HD
ENDBRANCH  16  18
ENDBRANCH  15  16
ENDBRANCH  12  15
ENDBRANCH   4   9
BRANCH   1  20
ATOM     20  C   LIG    1        0.649  -0.622   1.046  0.00  0.00    +0.340 C 
ATOM     21  O   LIG    1        1.156   0.039   1.930  0.00  0.00    -0.245 OA
BRANCH  20  22
ATOM     22  O   LIG    1        0.039  -0.009   0.013  0.00  0.00    -0.464 OA
ATOM     23  C   LIG    1        0.027   1.443   0.021  0.00  0.00    +0.280 C 
ENDBRANCH  20  22
ENDBRANCH   1  20
TORSDOF 6
