REMARK  Name = ZINC000160869790
REMARK                            x       y       z     vdW  Elec       q    Type
REMARK                         _______ _______ _______ _____ _____    ______ ____
ROOT
ATOM      1  N   LIG    1       -1.517   1.183  -4.419  0.00  0.00    -0.296 N 
ATOM      2  C   LIG    1       -1.042   1.907  -3.386  0.00  0.00    +0.302 C 
ATOM      3  O   LIG    1       -0.483   1.351  -2.460  0.00  0.00    -0.253 OA
ATOM      4  N   LIG    1       -1.186   3.247  -3.379  0.00  0.00    -0.286 N 
ATOM      5  C   LIG    1       -0.574   4.060  -2.320  0.00  0.00    +0.109 C 
ATOM      6  C   LIG    1        0.281   5.153  -2.969  0.00  0.00    +0.023 C 
ATOM      7  C   LIG    1       -0.578   5.948  -3.955  0.00  0.00    -0.005 C 
ATOM      8  C   LIG    1       -1.089   5.016  -5.057  0.00  0.00    +0.023 C 
ATOM      9  C   LIG    1       -1.954   3.922  -4.434  0.00  0.00    +0.109 C 
ATOM     10  H   LIG    1       -1.898   1.631  -5.190  0.00  0.00    +0.150 HD
ENDROOT
BRANCH   7  11
ATOM     11  C   LIG    1        0.263   7.063  -4.581  0.00  0.00    -0.003 C 
ATOM     12  C   LIG    1        0.774   7.998  -3.480  0.00  0.00    +0.032 C 
ATOM     13  C   LIG    1        1.548   9.153  -4.121  0.00  0.00    +0.160 C 
ATOM     14  O   LIG    1        0.699   9.839  -5.043  0.00  0.00    -0.380 OA
ATOM     15  C   LIG    1        0.230   9.027  -6.121  0.00  0.00    +0.160 C 
ATOM     16  C   LIG    1       -0.598   7.867  -5.560  0.00  0.00    +0.032 C 
ENDBRANCH   7  11
BRANCH   1  17
ATOM     17  C   LIG    1       -1.459  -0.280  -4.376  0.00  0.00    +0.140 C 
BRANCH  17  18
ATOM     18  C   LIG    1       -2.173  -0.855  -5.601  0.00  0.00    +0.089 C 
ATOM     19  C   LIG    1       -2.110  -2.385  -5.560  0.00  0.00    +0.064 C 
ATOM     20  C   LIG    1       -2.893  -2.952  -6.747  0.00  0.00    +0.162 C 
ATOM     21  O   LIG    1       -4.240  -2.480  -6.697  0.00  0.00    -0.380 OA
ATOM     22  C   LIG    1       -4.364  -1.059  -6.780  0.00  0.00    +0.162 C 
ATOM     23  C   LIG    1       -3.640  -0.415  -5.594  0.00  0.00    +0.064 C 
BRANCH  18  24
ATOM     24  O   LIG    1       -1.538  -0.382  -6.790  0.00  0.00    -0.375 OA
ATOM     25  C   LIG    1       -0.190  -0.830  -6.947  0.00  0.00    +0.194 C 
ENDBRANCH  18  24
ENDBRANCH  17  18
ENDBRANCH   1  17
TORSDOF 4
