REMARK  Name = ZINC000009616488
REMARK                            x       y       z     vdW  Elec       q    Type
REMARK                         _______ _______ _______ _____ _____    ______ ____
ROOT
ATOM      1  N   LIG    1       -2.542  -4.064   0.015  0.00  0.00    -0.269 N 
ATOM      2  C   LIG    1       -3.732  -4.689   0.124  0.00  0.00    +0.304 C 
ATOM      3  N   LIG    1       -3.781  -6.032   0.224  0.00  0.00    -0.292 N 
ATOM      4  H   LIG    1       -2.960  -6.549   0.218  0.00  0.00    +0.151 HD
ATOM      5  O   LIG    1       -4.760  -4.041   0.132  0.00  0.00    -0.252 OA
ATOM      6  H   LIG    1       -1.728  -4.584  -0.069  0.00  0.00    +0.156 HD
ENDROOT
BRANCH   1   7
ATOM      7  C   LIG    1       -2.483  -2.666   0.023  0.00  0.00    +0.038 A 
ATOM      8  C   LIG    1       -3.385  -1.937   0.784  0.00  0.00    +0.069 A 
ATOM      9  C   LIG    1       -3.327  -0.552   0.786  0.00  0.00    +0.122 A 
ATOM     10  C   LIG    1       -2.360   0.101   0.035  0.00  0.00    +0.046 A 
ATOM     11  C   LIG    1       -1.458  -0.627  -0.718  0.00  0.00    +0.005 A 
ATOM     12  C   LIG    1       -1.516  -2.007  -0.726  0.00  0.00    +0.023 A 
BRANCH   9  13
ATOM     13  O   LIG    1       -4.213   0.165   1.526  0.00  0.00    -0.495 OA
ATOM     14  C   LIG    1       -4.094   1.589   1.480  0.00  0.00    +0.277 C 
ENDBRANCH   9  13
ENDBRANCH   1   7
BRANCH   3  15
ATOM     15  C   LIG    1       -5.074  -6.711   0.342  0.00  0.00    +0.184 C 
BRANCH  15  16
ATOM     16  C   LIG    1       -4.853  -8.199   0.438  0.00  0.00    +0.174 A 
ATOM     17  N   LIG    1       -4.678  -8.911   1.573  0.00  0.00    -0.196 N 
ATOM     18  N   LIG    1       -4.514 -10.242   1.151  0.00  0.00    -0.039 NA
ATOM     19  N   LIG    1       -4.591 -10.235  -0.136  0.00  0.00    -0.023 NA
ATOM     20  N   LIG    1       -4.790  -9.039  -0.561  0.00  0.00    -0.111 NA
BRANCH  17  21
ATOM     21  C   LIG    1       -4.668  -8.426   2.889  0.00  0.00    +0.069 A 
ATOM     22  C   LIG    1       -5.196  -9.196   3.917  0.00  0.00    +0.031 A 
ATOM     23  C   LIG    1       -5.181  -8.720   5.213  0.00  0.00    +0.040 A 
ATOM     24  C   LIG    1       -4.649  -7.471   5.487  0.00  0.00    +0.124 A 
ATOM     25  F   LIG    1       -4.640  -7.005   6.755  0.00  0.00    -0.205 F 
ATOM     26  C   LIG    1       -4.127  -6.699   4.462  0.00  0.00    +0.040 A 
ATOM     27  C   LIG    1       -4.136  -7.174   3.166  0.00  0.00    +0.031 A 
ENDBRANCH  17  21
ENDBRANCH  15  16
ENDBRANCH   3  15
TORSDOF 5
