REMARK  Name = ZINC000001067206
REMARK                            x       y       z     vdW  Elec       q    Type
REMARK                         _______ _______ _______ _____ _____    ______ ____
ROOT
ATOM      1  C   LIG    1        0.731  -0.503   1.223  0.00  0.00    +0.242 C 
ATOM      2  N   LIG    1        0.278  -0.191   2.453  0.00  0.00    -0.277 N 
ATOM      3  H   LIG    1       -0.517   0.356   2.553  0.00  0.00    +0.155 HD
ATOM      4  O   LIG    1        1.725  -1.187   1.099  0.00  0.00    -0.273 OA
ENDROOT
BRANCH   2   5
ATOM      5  C   LIG    1        0.949  -0.650   3.578  0.00  0.00    +0.090 A 
ATOM      6  C   LIG    1        0.572  -0.396   4.862  0.00  0.00    +0.084 A 
ATOM      7  C   LIG    1        1.455  -1.000   5.855  0.00  0.00    -0.018 A 
ATOM      8  C   LIG    1        1.552  -1.071   7.376  0.00  0.00    +0.037 C 
ATOM      9  C   LIG    1        3.000  -1.517   7.661  0.00  0.00    +0.010 C 
ATOM     10  C   LIG    1        3.347  -2.290   6.373  0.00  0.00    +0.043 C 
ATOM     11  C   LIG    1        2.455  -1.679   5.298  0.00  0.00    -0.004 A 
ATOM     12  S   LIG    1        2.350  -1.614   3.539  0.00  0.00    -0.077 S 
BRANCH   6  13
ATOM     13  C   LIG    1       -0.578   0.386   5.205  0.00  0.00    +0.102 C 
ATOM     14  N   LIG    1       -1.490   1.006   5.476  0.00  0.00    -0.191 NA
ENDBRANCH   6  13
ENDBRANCH   2   5
BRANCH   1  15
ATOM     15  C   LIG    1        0.002  -0.004   0.002  0.00  0.00    +0.190 C 
ATOM     16  C   LIG    1       -0.019   1.526   0.010  0.00  0.00    +0.042 C 
BRANCH  15  17
ATOM     17  N   LIG    1        0.688  -0.476  -1.203  0.00  0.00    -0.258 N 
ATOM     18  C   LIG    1        1.743   0.116  -1.800  0.00  0.00    +0.142 A 
ATOM     19  C   LIG    1        2.078  -0.628  -2.879  0.00  0.00    +0.163 A 
ATOM     20  C   LIG    1        1.198  -1.714  -2.944  0.00  0.00    +0.167 A 
ATOM     21  N   LIG    1        0.368  -1.627  -1.936  0.00  0.00    -0.177 NA
BRANCH  19  22
ATOM     22  N   LIG    1        3.182  -0.345  -3.824  0.00  0.00    +0.059 N 
ATOM     23  O   LIG    1        3.885   0.636  -3.662  0.00  0.00    -0.126 OA
ATOM     24  O   LIG    1        3.387  -1.093  -4.763  0.00  0.00    -0.126 OA
ENDBRANCH  19  22
ENDBRANCH  15  17
ENDBRANCH   1  15
TORSDOF 5
