REMARK  Name = ZINC000095993861
REMARK                            x       y       z     vdW  Elec       q    Type
REMARK                         _______ _______ _______ _____ _____    ______ ____
ROOT
ATOM      1  C   LIG    1       -2.942   2.473  -1.248  0.00  0.00    +0.124 A 
ATOM      2  C   LIG    1       -2.662   3.170  -0.081  0.00  0.00    +0.035 A 
ATOM      3  C   LIG    1       -2.253   4.488  -0.181  0.00  0.00    +0.069 A 
ATOM      4  C   LIG    1       -2.138   5.066  -1.439  0.00  0.00    +0.215 A 
ATOM      5  N   LIG    1       -2.414   4.370  -2.529  0.00  0.00    -0.219 NA
ATOM      6  C   LIG    1       -2.800   3.110  -2.466  0.00  0.00    +0.143 A 
ENDROOT
BRANCH   1   7
ATOM      7  S   LIG    1       -3.467   0.793  -1.178  0.00  0.00    +0.062 S 
ATOM      8  O   LIG    1       -4.037   0.604   0.110  0.00  0.00    -0.153 OA
ATOM      9  O   LIG    1       -4.174   0.542  -2.385  0.00  0.00    -0.153 OA
BRANCH   7  10
ATOM     10  N   LIG    1       -2.105  -0.148  -1.230  0.00  0.00    -0.177 NA
ATOM     11  C   LIG    1       -1.573  -0.596  -2.520  0.00  0.00    +0.132 C 
BRANCH  10  12
ATOM     12  C   LIG    1       -1.433  -0.534   0.013  0.00  0.00    +0.076 C 
ATOM     13  C   LIG    1       -1.413  -2.059   0.130  0.00  0.00    +0.026 C 
BRANCH  12  14
ATOM     14  C   LIG    1        0.002  -0.004   0.002  0.00  0.00    +0.017 C 
ATOM     15  C   LIG    1       -0.019   1.526   0.010  0.00  0.00    +0.005 C 
ENDBRANCH  12  14
ENDBRANCH  10  12
ENDBRANCH   7  10
ENDBRANCH   1   7
BRANCH   4  16
ATOM     16  O   LIG    1       -1.737   6.358  -1.550  0.00  0.00    -0.467 OA
BRANCH  16  17
ATOM     17  C   LIG    1       -1.638   6.895  -2.871  0.00  0.00    +0.343 C 
BRANCH  17  18
ATOM     18  C   LIG    1       -1.175   8.351  -2.796  0.00  0.00    +0.424 C 
ATOM     19  F   LIG    1       -2.101   9.097  -2.058  0.00  0.00    -0.167 F 
ATOM     20  F   LIG    1        0.075   8.412  -2.172  0.00  0.00    -0.167 F 
ATOM     21  F   LIG    1       -1.078   8.877  -4.089  0.00  0.00    -0.167 F 
ENDBRANCH  17  18
ENDBRANCH  16  17
ENDBRANCH   4  16
TORSDOF 7
