REMARK  Name = ZINC000095992659
REMARK                            x       y       z     vdW  Elec       q    Type
REMARK                         _______ _______ _______ _____ _____    ______ ____
ROOT
ATOM      1  C   LIG    1        0.441   1.472   0.027  0.00  0.00    +0.067 C 
ATOM      2  C   LIG    1        0.219  -0.019   0.010  0.00  0.00    +0.061 A 
ATOM      3  C   LIG    1        0.029  -0.697   1.204  0.00  0.00    +0.049 A 
ATOM      4  C   LIG    1       -0.181  -2.075   1.177  0.00  0.00    +0.028 A 
ATOM      5  C   LIG    1       -0.180  -2.717  -0.048  0.00  0.00    +0.045 A 
ATOM      6  C   LIG    1        0.023  -1.972  -1.204  0.00  0.00    +0.122 A 
ATOM      7  N   LIG    1        0.214  -0.664  -1.141  0.00  0.00    -0.235 NA
ENDROOT
BRANCH   6   8
ATOM      8  N   LIG    1        0.026  -2.610  -2.442  0.00  0.00    -0.311 N 
ATOM      9  C   LIG    1        0.046  -4.078  -2.539  0.00  0.00    +0.134 C 
ATOM     10  C   LIG    1        1.165  -4.489  -3.496  0.00  0.00    +0.178 C 
ATOM     11  O   LIG    1        1.022  -3.774  -4.725  0.00  0.00    -0.377 OA
ATOM     12  C   LIG    1        1.141  -2.355  -4.594  0.00  0.00    +0.178 C 
ATOM     13  C   LIG    1        0.015  -1.835  -3.693  0.00  0.00    +0.134 C 
ENDBRANCH   6   8
BRANCH   3  14
ATOM     14  N   LIG    1        0.036  -0.005   2.422  0.00  0.00    -0.338 N 
ATOM     15  H   LIG    1        0.183   0.954   2.434  0.00  0.00    +0.146 HD
BRANCH  14  16
ATOM     16  C   LIG    1       -0.176  -0.729   3.677  0.00  0.00    +0.086 C 
ATOM     17  C   LIG    1        0.435   0.052   4.855  0.00  0.00    +0.107 C 
ATOM     18  N   LIG    1       -0.679   0.405   5.764  0.00  0.00    -0.293 NA
ATOM     19  C   LIG    1       -1.734  -0.615   5.528  0.00  0.00    +0.086 C 
ATOM     20  C   LIG    1       -1.687  -0.823   3.993  0.00  0.00    +0.039 C 
BRANCH  18  21
ATOM     21  C   LIG    1       -0.239   0.391   7.166  0.00  0.00    +0.198 C 
BRANCH  21  22
ATOM     22  C   LIG    1       -1.358   0.932   8.058  0.00  0.00    +0.402 C 
ATOM     23  F   LIG    1       -0.938   0.919   9.392  0.00  0.00    -0.169 F 
ATOM     24  F   LIG    1       -2.495   0.129   7.918  0.00  0.00    -0.169 F 
ATOM     25  F   LIG    1       -1.664   2.243   7.678  0.00  0.00    -0.169 F 
ENDBRANCH  21  22
ENDBRANCH  18  21
ENDBRANCH  14  16
ENDBRANCH   3  14
TORSDOF 5
