REMARK  Name = ZINC000069616712
REMARK                            x       y       z     vdW  Elec       q    Type
REMARK                         _______ _______ _______ _____ _____    ______ ____
ROOT
ATOM      1  C   LIG    1        1.778  -0.472   1.720  0.00  0.00    +0.120 C 
ENDROOT
BRANCH   1   2
ATOM      2  N   LIG    1        0.872  -0.217   2.847  0.00  0.00    -0.297 NA
ATOM      3  C   LIG    1        1.599  -0.245   4.124  0.00  0.00    +0.100 C 
ATOM      4  C   LIG    1        0.609  -0.055   5.276  0.00  0.00    +0.100 C 
ATOM      5  N   LIG    1       -0.099   1.221   5.104  0.00  0.00    -0.295 NA
ATOM      6  C   LIG    1       -0.826   1.248   3.828  0.00  0.00    +0.100 C 
ATOM      7  C   LIG    1        0.163   1.058   2.676  0.00  0.00    +0.100 C 
BRANCH   5   8
ATOM      8  C   LIG    1       -1.006   1.475   6.232  0.00  0.00    +0.156 C 
BRANCH   8   9
ATOM      9  C   LIG    1       -1.334   2.969   6.295  0.00  0.00    +0.355 C 
ATOM     10  F   LIG    1       -0.145   3.706   6.329  0.00  0.00    -0.208 F 
ATOM     11  F   LIG    1       -2.076   3.331   5.166  0.00  0.00    -0.208 F 
ENDBRANCH   8   9
ENDBRANCH   5   8
ENDBRANCH   1   2
BRANCH   1  12
ATOM     12  C   LIG    1        2.678   0.746   1.504  0.00  0.00    +0.158 C 
BRANCH  12  13
ATOM     13  C   LIG    1        3.501   0.547   0.257  0.00  0.00    -0.018 A 
ATOM     14  C   LIG    1        4.633  -0.246   0.295  0.00  0.00    +0.007 A 
ATOM     15  C   LIG    1        5.388  -0.428  -0.848  0.00  0.00    +0.015 A 
ATOM     16  C   LIG    1        5.011   0.183  -2.031  0.00  0.00    +0.018 A 
ATOM     17  C   LIG    1        3.878   0.976  -2.068  0.00  0.00    +0.015 A 
ATOM     18 BR   LIG    1        6.043  -0.067  -3.595  0.00  0.00    -0.050 Br
ATOM     19  C   LIG    1        3.121   1.154  -0.926  0.00  0.00    +0.007 A 
ENDBRANCH  12  13
BRANCH  12  20
ATOM     20  O   LIG    1        3.547   0.902   2.628  0.00  0.00    -0.386 OA
ATOM     21  H   LIG    1        4.126   0.144   2.786  0.00  0.00    +0.210 HD
ENDBRANCH  12  20
ENDBRANCH   1  12
TORSDOF 6
