REMARK  Name = ZINC000084733983
REMARK                            x       y       z     vdW  Elec       q    Type
REMARK                         _______ _______ _______ _____ _____    ______ ____
ROOT
ATOM      1  N   LIG    1        2.116  -0.005   1.279  0.00  0.00    -0.293 N 
ATOM      2  C   LIG    1        2.349   1.294   1.553  0.00  0.00    +0.300 C 
ATOM      3  O   LIG    1        1.418   2.046   1.769  0.00  0.00    -0.253 OA
ATOM      4  N   LIG    1        3.613   1.760   1.587  0.00  0.00    -0.298 N 
ATOM      5  H   LIG    1        4.356   1.160   1.414  0.00  0.00    +0.150 HD
ATOM      6  H   LIG    1        2.859  -0.604   1.106  0.00  0.00    +0.151 HD
ENDROOT
BRANCH   4   7
ATOM      7  C   LIG    1        3.866   3.172   1.885  0.00  0.00    +0.129 C 
BRANCH   7   8
ATOM      8  C   LIG    1        5.373   3.436   1.861  0.00  0.00    +0.162 C 
BRANCH   8   9
ATOM      9  N   LIG    1        5.625   4.848   2.159  0.00  0.00    -0.269 N 
ATOM     10  C   LIG    1        6.428   5.315   3.132  0.00  0.00    +0.127 A 
ATOM     11  C   LIG    1        6.389   6.693   3.074  0.00  0.00    +0.089 A 
ATOM     12  C   LIG    1        5.521   7.042   2.015  0.00  0.00    +0.153 A 
ATOM     13  N   LIG    1        5.077   5.939   1.476  0.00  0.00    -0.178 NA
BRANCH  11  14
ATOM     14  C   LIG    1        7.096   7.600   3.926  0.00  0.00    +0.102 C 
ATOM     15  N   LIG    1        7.657   8.319   4.603  0.00  0.00    -0.191 NA
ENDBRANCH  11  14
ENDBRANCH   8   9
ENDBRANCH   7   8
ENDBRANCH   4   7
BRANCH   1  16
ATOM     16  C   LIG    1        0.742  -0.511   1.242  0.00  0.00    +0.107 C 
BRANCH  16  17
ATOM     17  C   LIG    1        0.312  -0.900   2.633  0.00  0.00    +0.011 A 
ATOM     18  C   LIG    1        1.256  -1.295   3.562  0.00  0.00    +0.046 A 
ATOM     19  C   LIG    1        0.861  -1.653   4.840  0.00  0.00    +0.124 A 
ATOM     20  F   LIG    1        1.783  -2.039   5.748  0.00  0.00    -0.205 F 
ATOM     21  C   LIG    1       -0.479  -1.615   5.187  0.00  0.00    +0.041 A 
ATOM     22  C   LIG    1       -1.422  -1.219   4.257  0.00  0.00    +0.041 A 
ATOM     23  C   LIG    1       -1.027  -0.857   2.981  0.00  0.00    +0.128 A 
ATOM     24  F   LIG    1       -1.949  -0.470   2.072  0.00  0.00    -0.205 F 
ENDBRANCH  16  17
BRANCH  16  25
ATOM     25  C   LIG    1        0.674  -1.734   0.326  0.00  0.00    +0.024 C 
ATOM     26  C   LIG    1        0.989  -1.314  -1.111  0.00  0.00    +0.006 C 
ENDBRANCH  16  25
ENDBRANCH   1  16
TORSDOF 7
