REMARK  Name = ZINC000069616617
REMARK                            x       y       z     vdW  Elec       q    Type
REMARK                         _______ _______ _______ _____ _____    ______ ____
ROOT
ATOM      1  N   LIG    1       -4.808  -2.908   0.025  0.00  0.00    -0.285 N 
ATOM      2  H   LIG    1       -5.647  -2.430   0.117  0.00  0.00    +0.155 HD
ATOM      3  C   LIG    1       -4.806  -4.252  -0.083  0.00  0.00    +0.222 C 
ATOM      4  O   LIG    1       -3.756  -4.857  -0.104  0.00  0.00    -0.275 OA
ENDROOT
BRANCH   1   5
ATOM      5  C   LIG    1       -3.604  -2.206   0.006  0.00  0.00    +0.036 A 
ATOM      6  C   LIG    1       -3.467  -1.044   0.756  0.00  0.00    +0.062 A 
ATOM      7  C   LIG    1       -2.275  -0.349   0.743  0.00  0.00    +0.137 A 
ATOM      8  F   LIG    1       -2.141   0.780   1.473  0.00  0.00    -0.205 F 
ATOM      9  C   LIG    1       -1.207  -0.811  -0.036  0.00  0.00    +0.072 A 
ATOM     10  C   LIG    1       -1.351  -1.980  -0.788  0.00  0.00    +0.018 A 
ATOM     11  C   LIG    1       -2.542  -2.670  -0.765  0.00  0.00    +0.024 A 
BRANCH   9  12
ATOM     12  C   LIG    1        0.067  -0.070  -0.059  0.00  0.00    +0.244 C 
ATOM     13  O   LIG    1        0.192   0.945   0.600  0.00  0.00    -0.270 OA
ATOM     14  N   LIG    1        1.093  -0.516  -0.809  0.00  0.00    -0.325 N 
ATOM     15  H   LIG    1        1.932  -0.029  -0.824  0.00  0.00    +0.145 HD
ATOM     16  H   LIG    1        0.995  -1.328  -1.332  0.00  0.00    +0.145 HD
ENDBRANCH   9  12
ENDBRANCH   1   5
BRANCH   3  17
ATOM     17  C   LIG    1       -6.110  -5.002  -0.178  0.00  0.00    +0.093 C 
ATOM     18  C   LIG    1       -5.829  -6.503  -0.294  0.00  0.00    +0.119 C 
ATOM     19  N   LIG    1       -7.100  -7.206  -0.517  0.00  0.00    -0.314 N 
ATOM     20  C   LIG    1       -7.961  -6.775  -1.626  0.00  0.00    +0.106 C 
ATOM     21  C   LIG    1       -8.218  -5.271  -1.495  0.00  0.00    +0.020 C 
ATOM     22  C   LIG    1       -6.880  -4.534  -1.416  0.00  0.00    +0.016 C 
BRANCH  19  23
ATOM     23  C   LIG    1       -7.480  -8.259   0.307  0.00  0.00    +0.121 A 
ATOM     24  N   LIG    1       -6.803  -8.500   1.419  0.00  0.00    -0.240 NA
ATOM     25  C   LIG    1       -7.133  -9.487   2.231  0.00  0.00    +0.113 A 
ATOM     26  C   LIG    1       -8.199 -10.315   1.941  0.00  0.00    +0.020 A 
ATOM     27  C   LIG    1       -8.932 -10.100   0.781  0.00  0.00    +0.005 A 
ATOM     28  C   LIG    1       -8.565  -9.055  -0.047  0.00  0.00    +0.043 A 
ENDBRANCH  19  23
ENDBRANCH   3  17
TORSDOF 4
