REMARK  Name = ZINC000084735503
REMARK                            x       y       z     vdW  Elec       q    Type
REMARK                         _______ _______ _______ _____ _____    ______ ____
ROOT
ATOM      1  C   LIG    1       -1.434  -0.532   0.016  0.00  0.00    +0.136 C 
ATOM      2  C   LIG    1       -1.415  -2.061   0.129  0.00  0.00    +0.141 C 
ATOM      3  N   LIG    1       -2.788  -2.557  -0.051  0.00  0.00    -0.281 N 
ATOM      4  C   LIG    1       -3.337  -3.417   0.830  0.00  0.00    +0.302 C 
ATOM      5  O   LIG    1       -2.666  -3.865   1.740  0.00  0.00    -0.253 OA
ATOM      6  N   LIG    1       -4.628  -3.780   0.703  0.00  0.00    -0.299 N 
ATOM      7  H   LIG    1       -5.143  -3.482  -0.064  0.00  0.00    +0.150 HD
ATOM      8  C   LIG    1       -3.546  -2.086  -1.221  0.00  0.00    +0.140 C 
ATOM      9  C   LIG    1       -3.461  -0.556  -1.268  0.00  0.00    +0.133 C 
ATOM     10  C   LIG    1       -4.075  -0.050  -2.575  0.00  0.00    +0.039 C 
ATOM     11  O   LIG    1       -2.090  -0.157  -1.197  0.00  0.00    -0.371 OA
ENDROOT
BRANCH   1  12
ATOM     12  C   LIG    1        0.002  -0.003   0.005  0.00  0.00    +0.030 C 
ATOM     13  C   LIG    1       -0.019   1.527   0.016  0.00  0.00    +0.006 C 
ENDBRANCH   1  12
BRANCH   6  14
ATOM     14  C   LIG    1       -5.255  -4.626   1.722  0.00  0.00    +0.106 C 
BRANCH  14  15
ATOM     15  C   LIG    1       -6.713  -4.888   1.340  0.00  0.00    +0.020 C 
BRANCH  15  16
ATOM     16  C   LIG    1       -7.368  -5.771   2.404  0.00  0.00    +0.023 C 
BRANCH  16  17
ATOM     17  C   LIG    1       -8.826  -6.034   2.022  0.00  0.00    +0.125 C 
BRANCH  17  18
ATOM     18  N   LIG    1       -9.453  -6.880   3.041  0.00  0.00    -0.313 N 
ATOM     19  C   LIG    1      -10.070  -6.303   4.104  0.00  0.00    +0.019 A 
ATOM     20  C   LIG    1      -10.661  -7.063   5.056  0.00  0.00    +0.021 A 
ATOM     21  C   LIG    1      -10.629  -8.461   4.954  0.00  0.00    +0.007 A 
ATOM     22  C   LIG    1      -10.004  -9.039   3.888  0.00  0.00    +0.070 A 
ATOM     23  C   LIG    1      -10.108  -4.801   4.220  0.00  0.00    +0.063 C 
ATOM     24  C   LIG    1       -9.406  -8.219   2.915  0.00  0.00    +0.251 A 
ATOM     25  O   LIG    1       -8.843  -8.723   1.956  0.00  0.00    -0.268 OA
ENDBRANCH  17  18
ENDBRANCH  16  17
ENDBRANCH  15  16
ENDBRANCH  14  15
ENDBRANCH   6  14
TORSDOF 6
