REMARK  Name = ZINC000012974365
REMARK                            x       y       z     vdW  Elec       q    Type
REMARK                         _______ _______ _______ _____ _____    ______ ____
ROOT
ATOM      1  N   LIG    1        0.488  -1.392  -3.393  0.00  0.00    -0.308 N 
ATOM      2  H   LIG    1        0.402  -2.317  -3.115  0.00  0.00    +0.149 HD
ATOM      3  C   LIG    1        1.043  -1.095  -4.585  0.00  0.00    +0.219 C 
ATOM      4  O   LIG    1        1.151   0.062  -4.932  0.00  0.00    -0.275 OA
ENDROOT
BRANCH   3   5
ATOM      5  C   LIG    1        1.529  -2.201  -5.486  0.00  0.00    +0.101 C 
ATOM      6  C   LIG    1        2.702  -2.970  -4.836  0.00  0.00    +0.110 C 
ATOM      7  C   LIG    1        3.621  -3.293  -5.993  0.00  0.00    +0.221 C 
ATOM      8  O   LIG    1        4.508  -4.119  -5.966  0.00  0.00    -0.275 OA
ATOM      9  N   LIG    1        3.311  -2.530  -7.056  0.00  0.00    -0.271 N 
ATOM     10  C   LIG    1        2.193  -1.626  -6.757  0.00  0.00    +0.127 C 
BRANCH   9  11
ATOM     11  C   LIG    1        3.969  -2.591  -8.290  0.00  0.00    +0.036 A 
ATOM     12  C   LIG    1        5.088  -3.399  -8.443  0.00  0.00    +0.024 A 
ATOM     13  C   LIG    1        5.735  -3.456  -9.662  0.00  0.00    +0.005 A 
ATOM     14  C   LIG    1        5.270  -2.709 -10.729  0.00  0.00    -0.050 A 
ATOM     15  C   LIG    1        4.156  -1.904 -10.579  0.00  0.00    +0.005 A 
ATOM     16  C   LIG    1        5.979  -2.774 -12.057  0.00  0.00    +0.044 C 
ATOM     17  C   LIG    1        3.501  -1.847  -9.365  0.00  0.00    +0.024 A 
ENDBRANCH   9  11
ENDBRANCH   3   5
BRANCH   1  18
ATOM     18  C   LIG    1        0.016  -0.317  -2.517  0.00  0.00    +0.103 C 
ATOM     19  C   LIG    1       -1.407   0.078  -2.915  0.00  0.00    +0.033 C 
BRANCH  18  20
ATOM     20  C   LIG    1        0.023  -0.795  -1.087  0.00  0.00    +0.013 A 
ATOM     21  C   LIG    1        0.025  -0.009   0.015  0.00  0.00    +0.041 A 
ATOM     22  N   LIG    1        0.038  -0.817   1.096  0.00  0.00    -0.271 N 
ATOM     23  C   LIG    1        0.044  -0.384   2.495  0.00  0.00    +0.172 C 
ATOM     24  N   LIG    1        0.035  -2.143   0.643  0.00  0.00    -0.179 NA
ATOM     25  C   LIG    1        0.021   1.498   0.032  0.00  0.00    +0.065 C 
ATOM     26  C   LIG    1        0.029  -2.128  -0.665  0.00  0.00    +0.140 A 
ENDBRANCH  18  20
ENDBRANCH   1  18
TORSDOF 4
