REMARK  Name = ZINC000083859139
REMARK                            x       y       z     vdW  Elec       q    Type
REMARK                         _______ _______ _______ _____ _____    ______ ____
ROOT
ATOM      1  C   LIG    1       -0.064   0.126  -2.508  0.00  0.00    +0.144 C 
ATOM      2  C   LIG    1        1.103   1.117  -2.534  0.00  0.00    +0.028 C 
ATOM      3  C   LIG    1        1.133   1.826  -3.890  0.00  0.00    +0.003 C 
ATOM      4  C   LIG    1        1.254   0.781  -5.002  0.00  0.00    +0.015 C 
ATOM      5  C   LIG    1        0.084  -0.200  -4.904  0.00  0.00    +0.085 C 
ATOM      6  N   LIG    1        0.100  -0.853  -3.589  0.00  0.00    -0.287 NA
ENDROOT
BRANCH   1   7
ATOM      7  C   LIG    1       -0.085  -0.589  -1.181  0.00  0.00    +0.233 C 
ATOM      8  N   LIG    1       -0.718  -0.036  -0.128  0.00  0.00    -0.301 N 
ATOM      9  C   LIG    1       -1.384   1.260  -0.271  0.00  0.00    +0.132 C 
ATOM     10  O   LIG    1        0.467  -1.663  -1.062  0.00  0.00    -0.274 OA
BRANCH   8  11
ATOM     11  C   LIG    1       -0.738  -0.732   1.162  0.00  0.00    +0.139 C 
BRANCH  11  12
ATOM     12  C   LIG    1       -1.965  -1.643   1.230  0.00  0.00    +0.135 C 
ATOM     13  C   LIG    1       -1.988  -2.370   2.577  0.00  0.00    +0.033 C 
ATOM     14  C   LIG    1       -3.249  -3.234   2.662  0.00  0.00    +0.005 C 
ATOM     15  C   LIG    1       -4.479  -2.343   2.461  0.00  0.00    +0.028 C 
ATOM     16  C   LIG    1       -4.361  -1.617   1.118  0.00  0.00    +0.160 C 
ATOM     17  O   LIG    1       -3.151  -0.857   1.094  0.00  0.00    -0.375 OA
ENDBRANCH  11  12
ENDBRANCH   8  11
ENDBRANCH   1   7
BRANCH   6  18
ATOM     18  C   LIG    1       -0.926  -1.901  -3.510  0.00  0.00    +0.121 C 
BRANCH  18  19
ATOM     19  C   LIG    1       -2.292  -1.277  -3.634  0.00  0.00    -0.015 A 
ATOM     20  C   LIG    1       -2.973  -0.846  -2.506  0.00  0.00    +0.008 A 
ATOM     21  C   LIG    1       -4.227  -0.277  -2.669  0.00  0.00    +0.020 A 
ATOM     22  C   LIG    1       -4.753  -0.160  -3.941  0.00  0.00    +0.111 A 
ATOM     23  N   LIG    1       -4.078  -0.582  -4.992  0.00  0.00    -0.263 NA
ATOM     24  C   LIG    1       -2.881  -1.123  -4.876  0.00  0.00    +0.115 A 
ENDBRANCH  18  19
ENDBRANCH   6  18
TORSDOF 5
