REMARK  Name = ZINC000000886900
REMARK                            x       y       z     vdW  Elec       q    Type
REMARK                         _______ _______ _______ _____ _____    ______ ____
ROOT
ATOM      1  N   LIG    1        0.584  -0.401  -1.496  0.00  0.00    -0.199 N 
ENDROOT
BRANCH   1   2
ATOM      2  C   LIG    1       -0.299  -0.582  -2.564  0.00  0.00    +0.053 A 
ATOM      3  C   LIG    1       -1.540   0.042  -2.553  0.00  0.00    +0.044 A 
ATOM      4  C   LIG    1       -2.409  -0.134  -3.613  0.00  0.00    +0.043 A 
ATOM      5 CL   LIG    1       -3.957   0.651  -3.605  0.00  0.00    -0.083 Cl
ATOM      6  C   LIG    1       -2.048  -0.941  -4.679  0.00  0.00    +0.020 A 
ATOM      7  C   LIG    1       -0.815  -1.567  -4.689  0.00  0.00    +0.003 A 
ATOM      8  C   LIG    1        0.060  -1.390  -3.635  0.00  0.00    +0.025 A 
ENDBRANCH   1   2
BRANCH   1   9
ATOM      9  S   LIG    1        0.002  -0.004   0.002  0.00  0.00    +0.043 S 
ATOM     10  O   LIG    1        0.987  -0.494   0.902  0.00  0.00    -0.155 OA
ATOM     11  O   LIG    1       -1.322  -0.521   0.012  0.00  0.00    -0.155 OA
ATOM     12  C   LIG    1       -0.022   1.810   0.012  0.00  0.00    +0.218 C 
ENDBRANCH   1   9
BRANCH   1  13
ATOM     13  C   LIG    1        2.026  -0.563  -1.703  0.00  0.00    +0.226 C 
BRANCH  13  14
ATOM     14  C   LIG    1        2.391  -2.019  -1.571  0.00  0.00    +0.233 C 
ATOM     15  O   LIG    1        1.533  -2.841  -1.329  0.00  0.00    -0.274 OA
ATOM     16  N   LIG    1        3.673  -2.409  -1.723  0.00  0.00    -0.307 N 
ATOM     17  H   LIG    1        4.359  -1.752  -1.917  0.00  0.00    +0.149 HD
BRANCH  16  18
ATOM     18  C   LIG    1        4.028  -3.824  -1.595  0.00  0.00    +0.178 C 
BRANCH  18  19
ATOM     19  C   LIG    1        5.511  -3.991  -1.807  0.00  0.00    +0.122 A 
ATOM     20  C   LIG    1        6.453  -3.944  -0.848  0.00  0.00    +0.046 A 
ATOM     21  C   LIG    1        7.698  -4.148  -1.487  0.00  0.00    +0.041 A 
ATOM     22  C   LIG    1        7.442  -4.308  -2.798  0.00  0.00    +0.195 A 
ATOM     23  O   LIG    1        6.115  -4.217  -2.985  0.00  0.00    -0.466 OA
ENDBRANCH  18  19
ENDBRANCH  16  18
ENDBRANCH  13  14
ENDBRANCH   1  13
TORSDOF 6
