REMARK  Name = ZINC000001070326
REMARK                            x       y       z     vdW  Elec       q    Type
REMARK                         _______ _______ _______ _____ _____    ______ ____
ROOT
ATOM      1  N   LIG    1       -2.448   1.623   0.047  0.00  0.00    -0.277 N 
ATOM      2  C   LIG    1       -3.522   2.437   0.067  0.00  0.00    +0.239 C 
ATOM      3  O   LIG    1       -3.371   3.641   0.071  0.00  0.00    -0.273 OA
ATOM      4  H   LIG    1       -2.569   0.661   0.044  0.00  0.00    +0.155 HD
ENDROOT
BRANCH   1   5
ATOM      5  C   LIG    1       -1.169   2.162   0.031  0.00  0.00    +0.090 A 
ATOM      6  S   LIG    1       -0.821   3.829   0.034  0.00  0.00    -0.077 S 
ATOM      7  C   LIG    1        0.913   3.552   0.007  0.00  0.00    -0.004 A 
ATOM      8  C   LIG    1        1.184   2.241   0.003  0.00  0.00    -0.018 A 
ATOM      9  C   LIG    1        2.596   1.676  -0.019  0.00  0.00    +0.037 C 
ATOM     10  C   LIG    1        3.561   2.779  -0.460  0.00  0.00    +0.005 C 
ATOM     11  C   LIG    1        3.313   4.032   0.386  0.00  0.00    +0.005 C 
ATOM     12  C   LIG    1        1.966   4.643  -0.003  0.00  0.00    +0.043 C 
ATOM     13  C   LIG    1       -0.017   1.428   0.010  0.00  0.00    +0.084 A 
BRANCH  13  14
ATOM     14  C   LIG    1        0.002  -0.004   0.002  0.00  0.00    +0.102 C 
ATOM     15  N   LIG    1        0.018  -1.140  -0.004  0.00  0.00    -0.191 NA
ENDBRANCH  13  14
ENDBRANCH   1   5
BRANCH   2  16
ATOM     16  C   LIG    1       -4.910   1.852   0.085  0.00  0.00    +0.239 C 
BRANCH  16  17
ATOM     17  N   LIG    1       -5.897   2.935   0.105  0.00  0.00    -0.260 N 
ATOM     18  N   LIG    1       -5.957   3.977   1.039  0.00  0.00    -0.146 NA
ATOM     19  C   LIG    1       -6.968   4.747   0.728  0.00  0.00    +0.235 A 
ATOM     20  C   LIG    1       -7.589   4.216  -0.408  0.00  0.00    +0.074 A 
ATOM     21  C   LIG    1       -6.910   3.102  -0.770  0.00  0.00    +0.111 A 
BRANCH  19  22
ATOM     22  N   LIG    1       -7.387   5.967   1.455  0.00  0.00    +0.077 N 
ATOM     23  O   LIG    1       -6.765   6.335   2.436  0.00  0.00    -0.125 OA
ATOM     24  O   LIG    1       -8.352   6.603   1.072  0.00  0.00    -0.125 OA
ENDBRANCH  19  22
ENDBRANCH  16  17
ENDBRANCH   2  16
TORSDOF 5
