REMARK  Name = ZINC000095991400
REMARK                            x       y       z     vdW  Elec       q    Type
REMARK                         _______ _______ _______ _____ _____    ______ ____
ROOT
ATOM      1  C   LIG    1       -1.053  -6.317   0.242  0.00  0.00    +0.256 C 
ATOM      2  O   LIG    1       -2.039  -6.945   0.580  0.00  0.00    -0.270 OA
ATOM      3  N   LIG    1        0.064  -6.969  -0.138  0.00  0.00    -0.266 N 
ATOM      4  H   LIG    1        0.873  -6.471  -0.333  0.00  0.00    +0.157 HD
ENDROOT
BRANCH   1   5
ATOM      5  C   LIG    1       -1.080  -4.851   0.249  0.00  0.00    +0.120 C 
ATOM      6  C   LIG    1       -2.184  -4.156   0.763  0.00  0.00    +0.131 C 
ATOM      7  N   LIG    1       -2.188  -2.839   0.760  0.00  0.00    -0.237 NA
ATOM      8  C   LIG    1       -1.162  -2.135   0.275  0.00  0.00    +0.140 C 
ATOM      9  C   LIG    1       -1.222  -0.732   0.297  0.00  0.00    +0.050 C 
ATOM     10  C   LIG    1       -0.177  -0.006  -0.197  0.00  0.00    -0.046 C 
ATOM     11  C   LIG    1       -0.224   1.500  -0.181  0.00  0.00    +0.044 C 
ATOM     12  C   LIG    1        0.938  -0.672  -0.723  0.00  0.00    +0.021 C 
ATOM     13  C   LIG    1        0.979  -2.024  -0.730  0.00  0.00    +0.096 C 
ATOM     14  N   LIG    1       -0.060  -2.755  -0.240  0.00  0.00    -0.268 N 
ATOM     15  C   LIG    1        0.008  -4.104  -0.265  0.00  0.00    +0.271 C 
ATOM     16  O   LIG    1        0.987  -4.668  -0.722  0.00  0.00    -0.266 OA
ENDBRANCH   1   5
BRANCH   3  17
ATOM     17  C   LIG    1        0.055  -8.354  -0.250  0.00  0.00    +0.129 A 
ATOM     18  N   LIG    1        1.196  -9.037  -0.261  0.00  0.00    -0.217 NA
ATOM     19  C   LIG    1        1.192 -10.350  -0.362  0.00  0.00    +0.128 A 
ATOM     20  C   LIG    1        2.506 -11.089  -0.365  0.00  0.00    +0.088 C 
ATOM     21  N   LIG    1        0.071 -11.036  -0.468  0.00  0.00    -0.237 NA
ATOM     22  C   LIG    1       -1.105 -10.425  -0.470  0.00  0.00    +0.050 A 
ATOM     23  C   LIG    1       -1.149  -9.049  -0.360  0.00  0.00    +0.067 A 
BRANCH  22  24
ATOM     24  C   LIG    1       -2.378 -11.223  -0.592  0.00  0.00    +0.038 C 
ATOM     25  C   LIG    1       -3.652 -10.465  -0.972  0.00  0.00    +0.010 C 
ATOM     26  C   LIG    1       -2.978 -11.387  -1.990  0.00  0.00    +0.010 C 
ENDBRANCH  22  24
ENDBRANCH   3  17
TORSDOF 3
