REMARK  Name = ZINC000025836797
REMARK                            x       y       z     vdW  Elec       q    Type
REMARK                         _______ _______ _______ _____ _____    ______ ____
ROOT
ATOM      1  C   LIG    1        2.576  -2.541   4.296  0.00  0.00    +0.080 A 
ATOM      2  N   LIG    1        3.142  -1.862   5.284  0.00  0.00    -0.225 NA
ATOM      3  C   LIG    1        3.704  -2.553   6.227  0.00  0.00    +0.165 A 
ATOM      4  S   LIG    1        3.541  -4.270   5.870  0.00  0.00    -0.060 S 
ATOM      5  C   LIG    1        2.667  -3.880   4.391  0.00  0.00    +0.076 A 
ENDROOT
BRANCH   1   6
ATOM      6  C   LIG    1        1.897  -1.871   3.161  0.00  0.00    +0.001 A 
ATOM      7  C   LIG    1        1.835  -0.479   3.107  0.00  0.00    +0.013 A 
ATOM      8  C   LIG    1        1.202   0.141   2.050  0.00  0.00    +0.046 A 
ATOM      9  C   LIG    1        0.626  -0.618   1.042  0.00  0.00    +0.120 A 
ATOM     10  C   LIG    1        0.681  -2.004   1.095  0.00  0.00    +0.046 A 
ATOM     11  C   LIG    1        1.317  -2.631   2.146  0.00  0.00    +0.013 A 
BRANCH   9  12
ATOM     12  O   LIG    1        0.002  -0.004   0.002  0.00  0.00    -0.495 OA
ATOM     13  C   LIG    1       -0.017   1.425   0.010  0.00  0.00    +0.277 C 
ENDBRANCH   9  12
ENDBRANCH   1   6
BRANCH   3  14
ATOM     14  N   LIG    1        4.342  -2.021   7.341  0.00  0.00    -0.264 N 
ATOM     15  C   LIG    1        4.896  -2.841   8.255  0.00  0.00    +0.233 C 
ATOM     16  O   LIG    1        4.840  -4.043   8.105  0.00  0.00    -0.274 OA
ATOM     17  H   LIG    1        4.387  -1.060   7.461  0.00  0.00    +0.157 HD
BRANCH  15  18
ATOM     18  C   LIG    1        5.587  -2.265   9.464  0.00  0.00    +0.181 C 
BRANCH  18  19
ATOM     19  N   LIG    1        6.104  -3.356  10.300  0.00  0.00    -0.289 NA
ATOM     20  C   LIG    1        6.572  -2.849  11.598  0.00  0.00    +0.116 C 
ATOM     21  C   LIG    1        7.045  -4.024  12.459  0.00  0.00    +0.129 C 
ATOM     22  C   LIG    1        7.608  -3.497  13.780  0.00  0.00    +0.039 C 
ATOM     23  O   LIG    1        8.065  -4.742  11.757  0.00  0.00    -0.374 OA
ATOM     24  C   LIG    1        7.642  -5.251  10.489  0.00  0.00    +0.175 C 
ATOM     25  C   LIG    1        7.175  -4.088   9.609  0.00  0.00    +0.113 C 
ENDBRANCH  18  19
ENDBRANCH  15  18
ENDBRANCH   3  14
TORSDOF 5
