REMARK  Name = ZINC000095991410
REMARK                            x       y       z     vdW  Elec       q    Type
REMARK                         _______ _______ _______ _____ _____    ______ ____
ROOT
ATOM      1  O   LIG    1        0.002  -0.004   0.002  0.00  0.00    -0.274 OA
ATOM      2  C   LIG    1       -0.014   1.209   0.009  0.00  0.00    +0.234 C 
ATOM      3  N   LIG    1        1.143   1.898   0.001  0.00  0.00    -0.313 N 
ATOM      4  H   LIG    1        1.130   2.868   0.007  0.00  0.00    +0.149 HD
ENDROOT
BRANCH   2   5
ATOM      5  C   LIG    1       -1.330   1.944   0.019  0.00  0.00    +0.162 C 
ATOM      6  N   LIG    1       -2.441   0.982   0.011  0.00  0.00    -0.290 N 
ATOM      7  C   LIG    1       -2.671   0.036   0.943  0.00  0.00    +0.219 C 
ATOM      8  O   LIG    1       -1.927  -0.073   1.894  0.00  0.00    -0.275 OA
ATOM      9  C   LIG    1       -3.263   1.223  -1.192  0.00  0.00    +0.108 C 
ATOM     10  C   LIG    1       -2.306   1.913  -2.196  0.00  0.00    +0.021 C 
ATOM     11  C   LIG    1       -1.458   2.808  -1.254  0.00  0.00    +0.033 C 
BRANCH   7  12
ATOM     12  C   LIG    1       -3.854  -0.888   0.803  0.00  0.00    +0.075 C 
ATOM     13  C   LIG    1       -4.061  -1.941   1.893  0.00  0.00    +0.013 C 
ATOM     14  C   LIG    1       -3.568  -2.362   0.507  0.00  0.00    +0.013 C 
ENDBRANCH   7  12
ENDBRANCH   2   5
BRANCH   3  15
ATOM     15  C   LIG    1        2.422   1.183  -0.015  0.00  0.00    +0.110 C 
BRANCH  15  16
ATOM     16  C   LIG    1        3.571   2.193  -0.020  0.00  0.00    +0.072 C 
BRANCH  16  17
ATOM     17  C   LIG    1        4.886   1.458  -0.037  0.00  0.00    +0.018 A 
ATOM     18  C   LIG    1        5.520   0.987   1.049  0.00  0.00    +0.031 A 
ATOM     19  C   LIG    1        6.751   0.345   0.582  0.00  0.00    -0.000 A 
ATOM     20  C   LIG    1        7.804  -0.313   1.220  0.00  0.00    +0.010 A 
ATOM     21  C   LIG    1        8.838  -0.814   0.480  0.00  0.00    +0.001 A 
ATOM     22  C   LIG    1        8.850  -0.673  -0.900  0.00  0.00    +0.002 A 
ATOM     23  C   LIG    1        7.821  -0.028  -1.550  0.00  0.00    +0.026 A 
ATOM     24  C   LIG    1        6.758   0.490  -0.817  0.00  0.00    +0.047 A 
ATOM     25  N   LIG    1        5.609   1.165  -1.161  0.00  0.00    -0.358 N 
ATOM     26  H   LIG    1        5.351   1.401  -2.066  0.00  0.00    +0.166 HD
ENDBRANCH  16  17
ENDBRANCH  15  16
ENDBRANCH   3  15
TORSDOF 5
