REMARK  Name = ZINC000012981883
REMARK                            x       y       z     vdW  Elec       q    Type
REMARK                         _______ _______ _______ _____ _____    ______ ____
ROOT
ATOM      1  N   LIG    1        0.711  -0.489   1.189  0.00  0.00    -0.306 N 
ATOM      2  H   LIG    1        0.213  -0.731   1.986  0.00  0.00    +0.149 HD
ATOM      3  C   LIG    1        2.054  -0.600   1.174  0.00  0.00    +0.255 C 
ATOM      4  O   LIG    1        2.676  -0.297   0.177  0.00  0.00    -0.272 OA
ENDROOT
BRANCH   3   5
ATOM      5  C   LIG    1        2.783  -1.099   2.395  0.00  0.00    +0.263 C 
ATOM      6  C   LIG    1        2.674  -0.079   3.553  0.00  0.00    +0.093 C 
ATOM      7  C   LIG    1        4.037  -0.200   4.206  0.00  0.00    -0.002 A 
ATOM      8  C   LIG    1        4.516   0.211   5.430  0.00  0.00    +0.007 A 
ATOM      9  C   LIG    1        5.831  -0.041   5.778  0.00  0.00    +0.000 A 
ATOM     10  C   LIG    1        6.660  -0.707   4.894  0.00  0.00    +0.004 A 
ATOM     11  C   LIG    1        6.183  -1.116   3.665  0.00  0.00    +0.046 A 
ATOM     12  C   LIG    1        4.862  -0.863   3.306  0.00  0.00    +0.125 A 
ATOM     13  O   LIG    1        4.198  -1.162   2.152  0.00  0.00    -0.479 OA
ENDBRANCH   3   5
BRANCH   1  14
ATOM     14  C   LIG    1        0.002  -0.004   0.002  0.00  0.00    +0.100 C 
ATOM     15  C   LIG    1       -0.019   1.526   0.010  0.00  0.00    +0.033 C 
BRANCH  14  16
ATOM     16  C   LIG    1       -1.412  -0.526   0.013  0.00  0.00    -0.027 A 
ATOM     17  C   LIG    1       -2.123  -0.571   1.197  0.00  0.00    +0.007 A 
ATOM     18  C   LIG    1       -3.420  -1.049   1.207  0.00  0.00    +0.027 A 
ATOM     19  C   LIG    1       -4.006  -1.482   0.032  0.00  0.00    +0.088 A 
ATOM     20  C   LIG    1       -3.295  -1.436  -1.153  0.00  0.00    +0.027 A 
ATOM     21  C   LIG    1       -2.000  -0.954  -1.163  0.00  0.00    +0.007 A 
BRANCH  19  22
ATOM     22  S   LIG    1       -5.658  -2.093   0.045  0.00  0.00    -0.006 S 
ATOM     23  O   LIG    1       -5.844  -2.574   1.369  0.00  0.00    -0.170 OA
ATOM     24  C   LIG    1       -6.685  -0.626  -0.250  0.00  0.00    +0.200 C 
ATOM     25  O   LIG    1       -5.715  -2.973  -1.069  0.00  0.00    -0.170 OA
ENDBRANCH  19  22
ENDBRANCH  14  16
ENDBRANCH   1  14
TORSDOF 4
