REMARK  Name = ZINC000058177996
REMARK                            x       y       z     vdW  Elec       q    Type
REMARK                         _______ _______ _______ _____ _____    ______ ____
ROOT
ATOM      1  C   LIG    1        1.099  -2.131  -0.828  0.00  0.00    +0.061 A 
ATOM      2  C   LIG    1        0.435  -2.908   0.129  0.00  0.00    +0.016 A 
ATOM      3  C   LIG    1        0.302  -4.257  -0.043  0.00  0.00    +0.016 A 
ATOM      4  C   LIG    1        0.833  -4.868  -1.177  0.00  0.00    +0.065 A 
ATOM      5  C   LIG    1        0.714  -6.318  -1.405  0.00  0.00    +0.262 A 
ATOM      6  O   LIG    1        0.146  -7.039  -0.606  0.00  0.00    -0.267 OA
ATOM      7  N   LIG    1        1.262  -6.817  -2.538  0.00  0.00    -0.294 N 
ATOM      8  C   LIG    1        1.892  -5.999  -3.420  0.00  0.00    +0.110 A 
ATOM      9  N   LIG    1        2.012  -4.718  -3.247  0.00  0.00    -0.234 NA
ATOM     10  C   LIG    1        2.482  -6.611  -4.665  0.00  0.00    +0.086 C 
ATOM     11  C   LIG    1        1.506  -4.098  -2.151  0.00  0.00    +0.079 A 
ATOM     12  C   LIG    1        1.631  -2.720  -1.969  0.00  0.00    +0.043 A 
ENDROOT
BRANCH   1  13
ATOM     13  C   LIG    1        1.232  -0.671  -0.624  0.00  0.00    +0.339 C 
ATOM     14  O   LIG    1        1.803   0.008  -1.453  0.00  0.00    -0.245 OA
BRANCH  13  15
ATOM     15  O   LIG    1        0.719  -0.096   0.480  0.00  0.00    -0.464 OA
ATOM     16  C   LIG    1        0.886   1.340   0.613  0.00  0.00    +0.280 C 
ENDBRANCH  13  15
ENDBRANCH   1  13
BRANCH   7  17
ATOM     17  C   LIG    1        1.173  -8.253  -2.814  0.00  0.00    +0.162 C 
BRANCH  17  18
ATOM     18  C   LIG    1        2.393  -8.963  -2.223  0.00  0.00    +0.164 C 
BRANCH  18  19
ATOM     19  C   LIG    1        2.365 -10.418  -2.613  0.00  0.00    -0.017 A 
ATOM     20  C   LIG    1        1.554 -11.302  -1.925  0.00  0.00    +0.006 A 
ATOM     21  C   LIG    1        1.529 -12.637  -2.282  0.00  0.00    +0.000 A 
ATOM     22  C   LIG    1        2.313 -13.089  -3.327  0.00  0.00    +0.000 A 
ATOM     23  C   LIG    1        3.123 -12.205  -4.015  0.00  0.00    +0.000 A 
ATOM     24  C   LIG    1        3.146 -10.868  -3.661  0.00  0.00    +0.006 A 
ENDBRANCH  18  19
BRANCH  18  25
ATOM     25  O   LIG    1        2.366  -8.850  -0.799  0.00  0.00    -0.385 OA
ATOM     26  H   LIG    1        1.583  -9.240  -0.388  0.00  0.00    +0.210 HD
ENDBRANCH  18  25
ENDBRANCH  17  18
ENDBRANCH   7  17
TORSDOF 6
