REMARK  Name = ZINC000025707203
REMARK                            x       y       z     vdW  Elec       q    Type
REMARK                         _______ _______ _______ _____ _____    ______ ____
ROOT
ATOM      1  C   LIG    1       -1.281  -0.775  -0.004  0.00  0.00    +0.078 C 
ATOM      2  C   LIG    1       -0.983  -2.276  -0.013  0.00  0.00    +0.032 C 
ATOM      3  C   LIG    1       -2.302  -3.055   0.037  0.00  0.00    +0.109 C 
ATOM      4  N   LIG    1       -3.160  -2.603  -1.067  0.00  0.00    -0.298 N 
ATOM      5  C   LIG    1       -3.436  -1.167  -1.205  0.00  0.00    +0.109 C 
ATOM      6  C   LIG    1       -3.682  -3.490  -1.938  0.00  0.00    +0.239 C 
ATOM      7  O   LIG    1       -4.465  -3.115  -2.792  0.00  0.00    -0.271 OA
ATOM      8  C   LIG    1       -2.105  -0.409  -1.241  0.00  0.00    +0.032 C 
ENDROOT
BRANCH   1   9
ATOM      9  C   LIG    1        0.015  -0.006  -0.018  0.00  0.00    +0.214 C 
ATOM     10  N   LIG    1       -0.001   1.342  -0.014  0.00  0.00    -0.329 N 
ATOM     11  H   LIG    1       -0.847   1.817  -0.005  0.00  0.00    +0.145 HD
ATOM     12  H   LIG    1        0.833   1.837  -0.023  0.00  0.00    +0.145 HD
ATOM     13  O   LIG    1        1.072  -0.600  -0.034  0.00  0.00    -0.276 OA
ENDBRANCH   1   9
BRANCH   6  14
ATOM     14  C   LIG    1       -3.321  -4.856  -1.859  0.00  0.00    +0.068 C 
ATOM     15  C   LIG    1       -3.762  -5.730  -2.799  0.00  0.00    +0.012 C 
BRANCH  15  16
ATOM     16  C   LIG    1       -3.402  -7.092  -2.721  0.00  0.00    -0.010 C 
ATOM     17  C   LIG    1       -2.529  -7.580  -1.595  0.00  0.00    +0.264 C 
ATOM     18  O   LIG    1       -2.862  -8.930  -1.258  0.00  0.00    -0.487 OA
ATOM     19  C   LIG    1       -2.958  -9.818  -2.278  0.00  0.00    +0.128 A 
ATOM     20  C   LIG    1       -2.585 -11.140  -2.118  0.00  0.00    +0.048 A 
ATOM     21  C   LIG    1       -2.695 -12.021  -3.179  0.00  0.00    +0.023 A 
ATOM     22  C   LIG    1       -3.178 -11.592  -4.405  0.00  0.00    +0.042 A 
ATOM     23  C   LIG    1       -3.556 -10.276  -4.585  0.00  0.00    +0.031 A 
ATOM     24 CL   LIG    1       -3.309 -12.715  -5.723  0.00  0.00    -0.084 Cl
ATOM     25  C   LIG    1       -3.448  -9.380  -3.522  0.00  0.00    +0.018 A 
ATOM     26  C   LIG    1       -3.837  -7.969  -3.664  0.00  0.00    +0.018 C 
ENDBRANCH  15  16
ENDBRANCH   6  14
TORSDOF 3
