REMARK  Name = ZINC000082147846
REMARK                            x       y       z     vdW  Elec       q    Type
REMARK                         _______ _______ _______ _____ _____    ______ ____
ROOT
ATOM      1  C   LIG    1       -2.550  -2.680   0.012  0.00  0.00    +0.080 A 
ATOM      2  N   LIG    1       -3.294  -2.860   1.076  0.00  0.00    -0.174 NA
ATOM      3  N   LIG    1       -4.530  -3.352   0.661  0.00  0.00    -0.266 N 
ATOM      4  C   LIG    1       -5.694  -3.702   1.482  0.00  0.00    +0.159 C 
ATOM      5  C   LIG    1       -6.920  -3.791   0.564  0.00  0.00    +0.108 C 
ATOM      6  N   LIG    1       -6.610  -4.640  -0.596  0.00  0.00    -0.291 NA
ATOM      7  C   LIG    1       -5.666  -3.970  -1.508  0.00  0.00    +0.139 C 
ATOM      8  C   LIG    1       -4.504  -3.465  -0.689  0.00  0.00    +0.054 A 
ATOM      9  C   LIG    1       -3.296  -3.051  -1.114  0.00  0.00    +0.050 A 
ENDROOT
BRANCH   6  10
ATOM     10  C   LIG    1       -7.836  -5.032  -1.303  0.00  0.00    +0.125 C 
BRANCH  10  11
ATOM     11  C   LIG    1       -7.509  -6.089  -2.326  0.00  0.00    +0.037 A 
ATOM     12  C   LIG    1       -7.558  -7.429  -1.979  0.00  0.00    +0.133 A 
ATOM     13  F   LIG    1       -7.903  -7.789  -0.723  0.00  0.00    -0.205 F 
ATOM     14  C   LIG    1       -7.263  -8.399  -2.921  0.00  0.00    -0.015 A 
ATOM     15  C   LIG    1       -7.322  -9.857  -2.545  0.00  0.00    +0.047 C 
ATOM     16  C   LIG    1       -6.909  -8.031  -4.206  0.00  0.00    +0.009 A 
ATOM     17  C   LIG    1       -6.855  -6.694  -4.552  0.00  0.00    +0.039 A 
ATOM     18  C   LIG    1       -7.155  -5.722  -3.613  0.00  0.00    +0.131 A 
ATOM     19  F   LIG    1       -7.101  -4.415  -3.952  0.00  0.00    -0.205 F 
ENDBRANCH  10  11
ENDBRANCH   6  10
BRANCH   1  20
ATOM     20  C   LIG    1       -1.136  -2.159   0.001  0.00  0.00    +0.161 C 
BRANCH  20  21
ATOM     21  N   LIG    1       -1.156  -0.694   0.009  0.00  0.00    -0.310 N 
ATOM     22  H   LIG    1       -2.002  -0.220   0.020  0.00  0.00    +0.149 HD
ATOM     23  C   LIG    1        0.002  -0.004   0.002  0.00  0.00    +0.210 C 
ATOM     24  C   LIG    1       -0.018   1.503   0.010  0.00  0.00    +0.109 C 
ATOM     25  O   LIG    1        1.060  -0.596  -0.011  0.00  0.00    -0.276 OA
ENDBRANCH  20  21
ENDBRANCH   1  20
TORSDOF 4
