REMARK  Name = ZINC000095988640
REMARK                            x       y       z     vdW  Elec       q    Type
REMARK                         _______ _______ _______ _____ _____    ______ ____
ROOT
ATOM      1  C   LIG    1       -2.539  -4.171   0.016  0.00  0.00    +0.119 C 
ATOM      2  C   LIG    1       -2.833  -4.695   1.440  0.00  0.00    +0.111 C 
ATOM      3  C   LIG    1       -3.724  -5.924   1.146  0.00  0.00    +0.111 C 
ATOM      4  C   LIG    1       -4.340  -5.622  -0.203  0.00  0.00    +0.217 C 
ATOM      5  O   LIG    1       -5.306  -6.189  -0.667  0.00  0.00    -0.276 OA
ATOM      6  N   LIG    1       -3.659  -4.634  -0.812  0.00  0.00    -0.291 N 
ENDROOT
BRANCH   1   7
ATOM      7  C   LIG    1       -2.479  -2.665   0.017  0.00  0.00    -0.023 A 
ATOM      8  C   LIG    1       -3.648  -1.927   0.026  0.00  0.00    +0.006 A 
ATOM      9  C   LIG    1       -3.596  -0.545   0.027  0.00  0.00    +0.004 A 
ATOM     10  C   LIG    1       -2.374   0.101   0.019  0.00  0.00    +0.045 A 
ATOM     11  C   LIG    1       -1.200  -0.637   0.010  0.00  0.00    +0.120 A 
ATOM     12  C   LIG    1       -1.255  -2.024   0.003  0.00  0.00    +0.051 A 
BRANCH  11  13
ATOM     13  O   LIG    1        0.002  -0.004   0.002  0.00  0.00    -0.495 OA
ATOM     14  C   LIG    1       -0.017   1.425   0.010  0.00  0.00    +0.277 C 
ENDBRANCH  11  13
ENDBRANCH   1   7
BRANCH   2  15
ATOM     15  C   LIG    1       -1.561  -5.104   2.137  0.00  0.00    +0.234 A 
ATOM     16  N   LIG    1       -1.093  -4.610   3.256  0.00  0.00    -0.178 NA
ATOM     17  C   LIG    1        0.058  -5.275   3.494  0.00  0.00    +0.258 A 
ATOM     18  N   LIG    1        0.222  -6.126   2.516  0.00  0.00    -0.040 NA
ATOM     19  O   LIG    1       -0.700  -6.044   1.732  0.00  0.00    -0.336 OA
BRANCH  17  20
ATOM     20  N   LIG    1        0.909  -5.090   4.575  0.00  0.00    -0.303 N 
ATOM     21  C   LIG    1        0.587  -4.090   5.597  0.00  0.00    +0.132 C 
ATOM     22  C   LIG    1        2.128  -5.893   4.694  0.00  0.00    +0.132 C 
ENDBRANCH  17  20
ENDBRANCH   2  15
BRANCH   6  23
ATOM     23  C   LIG    1       -3.995  -4.090  -2.130  0.00  0.00    +0.077 C 
ATOM     24  C   LIG    1       -5.380  -3.463  -2.303  0.00  0.00    +0.024 C 
ATOM     25  C   LIG    1       -5.067  -4.818  -2.942  0.00  0.00    +0.024 C 
ENDBRANCH   6  23
TORSDOF 5
