REMARK  Name = ZINC000082138707
REMARK                            x       y       z     vdW  Elec       q    Type
REMARK                         _______ _______ _______ _____ _____    ______ ____
ROOT
ATOM      1  N   LIG    1        1.389  -4.023   2.212  0.00  0.00    -0.268 N 
ATOM      2  C   LIG    1        2.160  -4.623   3.293  0.00  0.00    +0.136 C 
ATOM      3  C   LIG    1        1.710  -6.063   3.545  0.00  0.00    +0.091 C 
ATOM      4  C   LIG    1        2.735  -6.776   4.430  0.00  0.00    +0.029 C 
ATOM      5  N   LIG    1        1.612  -6.749   2.246  0.00  0.00    -0.288 N 
ATOM      6  C   LIG    1        2.374  -7.823   1.960  0.00  0.00    +0.218 C 
ATOM      7  O   LIG    1        3.160  -8.245   2.782  0.00  0.00    -0.276 OA
ATOM      8  C   LIG    1        0.649  -6.213   1.272  0.00  0.00    +0.204 C 
ATOM      9  C   LIG    1        0.735  -4.712   1.276  0.00  0.00    +0.237 C 
ATOM     10  O   LIG    1        0.192  -4.099   0.381  0.00  0.00    -0.274 OA
ENDROOT
BRANCH   1  11
ATOM     11  C   LIG    1        1.325  -2.626   2.156  0.00  0.00    +0.040 A 
ATOM     12  C   LIG    1        0.295  -1.951   2.798  0.00  0.00    +0.024 A 
ATOM     13  C   LIG    1        0.232  -0.572   2.743  0.00  0.00    +0.005 A 
ATOM     14  C   LIG    1        1.193   0.139   2.049  0.00  0.00    +0.046 A 
ATOM     15  C   LIG    1        2.224  -0.531   1.405  0.00  0.00    +0.122 A 
ATOM     16  C   LIG    1        2.287  -1.915   1.453  0.00  0.00    +0.069 A 
BRANCH  15  17
ATOM     17  O   LIG    1        3.168   0.170   0.723  0.00  0.00    -0.495 OA
ATOM     18  C   LIG    1        3.040   1.593   0.716  0.00  0.00    +0.277 C 
ENDBRANCH  15  17
ENDBRANCH   1  11
BRANCH   6  19
ATOM     19  C   LIG    1        2.248  -8.502   0.621  0.00  0.00    +0.117 C 
BRANCH  19  20
ATOM     20  C   LIG    1        3.216  -9.685   0.555  0.00  0.00    +0.130 C 
BRANCH  20  21
ATOM     21  N   LIG    1        3.095 -10.344  -0.747  0.00  0.00    -0.353 N 
ATOM     22  C   LIG    1        2.239 -11.363  -1.045  0.00  0.00    +0.085 A 
ATOM     23  C   LIG    1        2.419 -11.701  -2.338  0.00  0.00    +0.019 A 
ATOM     24  C   LIG    1        3.423 -10.860  -2.857  0.00  0.00    +0.019 A 
ATOM     25  C   LIG    1        3.814 -10.036  -1.864  0.00  0.00    +0.085 A 
ENDBRANCH  20  21
ENDBRANCH  19  20
ENDBRANCH   6  19
TORSDOF 5
