REMARK  Name = ZINC000074562245
REMARK                            x       y       z     vdW  Elec       q    Type
REMARK                         _______ _______ _______ _____ _____    ______ ____
ROOT
ATOM      1  C   LIG    1        2.333   1.173  -0.104  0.00  0.00    +0.035 A 
ATOM      2  C   LIG    1        3.555   1.833  -0.106  0.00  0.00    +0.043 A 
ATOM      3  C   LIG    1        4.728   1.110  -0.206  0.00  0.00    +0.047 A 
ATOM      4 CL   LIG    1        6.257   1.933  -0.202  0.00  0.00    -0.083 Cl
ATOM      5  C   LIG    1        4.686  -0.269  -0.314  0.00  0.00    -0.015 A 
ATOM      6  C   LIG    1        3.470  -0.928  -0.317  0.00  0.00    +0.008 A 
ATOM      7  C   LIG    1        2.294  -0.211  -0.213  0.00  0.00    +0.024 A 
ENDROOT
BRANCH   1   8
ATOM      8  N   LIG    1        1.143   1.901   0.001  0.00  0.00    -0.280 N 
ATOM      9  H   LIG    1        0.391   1.532   0.490  0.00  0.00    +0.155 HD
ATOM     10  C   LIG    1        1.043   3.114  -0.576  0.00  0.00    +0.268 C 
ATOM     11  O   LIG    1        2.011   3.612  -1.116  0.00  0.00    -0.268 OA
BRANCH  10  12
ATOM     12  C   LIG    1       -0.246   3.844  -0.547  0.00  0.00    +0.144 A 
ATOM     13  N   LIG    1       -1.307   3.300   0.043  0.00  0.00    -0.247 NA
ATOM     14  C   LIG    1       -2.451   3.954   0.071  0.00  0.00    +0.131 A 
ATOM     15  C   LIG    1       -2.554   5.203  -0.524  0.00  0.00    +0.130 A 
ATOM     16  N   LIG    1       -1.504   5.745  -1.116  0.00  0.00    -0.259 NA
ATOM     17  C   LIG    1       -0.353   5.099  -1.144  0.00  0.00    +0.143 A 
ENDBRANCH  10  12
ENDBRANCH   1   8
BRANCH   5  18
ATOM     18  C   LIG    1        5.967  -1.055  -0.429  0.00  0.00    +0.121 C 
BRANCH  18  19
ATOM     19  N   LIG    1        6.517  -0.899  -1.782  0.00  0.00    -0.294 NA
ATOM     20  C   LIG    1        7.631  -1.831  -2.008  0.00  0.00    +0.113 C 
ATOM     21  C   LIG    1        8.212  -1.595  -3.405  0.00  0.00    +0.175 C 
ATOM     22  O   LIG    1        7.175  -1.743  -4.379  0.00  0.00    -0.377 OA
ATOM     23  C   LIG    1        6.074  -0.850  -4.189  0.00  0.00    +0.175 C 
ATOM     24  C   LIG    1        5.472  -1.079  -2.800  0.00  0.00    +0.113 C 
ENDBRANCH  18  19
ENDBRANCH   5  18
TORSDOF 4
