REMARK  Name = ZINC000042401412
REMARK                            x       y       z     vdW  Elec       q    Type
REMARK                         _______ _______ _______ _____ _____    ______ ____
ROOT
ATOM      1  N   LIG    1        0.185  -5.080  -4.723  0.00  0.00    -0.282 N 
ATOM      2  C   LIG    1       -0.454  -5.713  -3.719  0.00  0.00    +0.222 C 
ATOM      3  O   LIG    1       -1.424  -5.202  -3.200  0.00  0.00    -0.275 OA
ATOM      4  H   LIG    1        0.903  -5.526  -5.198  0.00  0.00    +0.155 HD
ENDROOT
BRANCH   2   5
ATOM      5  C   LIG    1        0.037  -7.055  -3.241  0.00  0.00    +0.093 C 
ATOM      6  C   LIG    1       -0.856  -7.550  -2.102  0.00  0.00    +0.016 C 
ATOM      7  C   LIG    1       -0.378  -8.928  -1.638  0.00  0.00    +0.020 C 
ATOM      8  C   LIG    1        1.057  -8.816  -1.113  0.00  0.00    +0.109 C 
ATOM      9  N   LIG    1        1.895  -8.206  -2.154  0.00  0.00    -0.285 N 
ATOM     10  C   LIG    1        3.025  -8.812  -2.569  0.00  0.00    +0.304 C 
ATOM     11  O   LIG    1        3.178 -10.004  -2.385  0.00  0.00    -0.252 OA
ATOM     12  N   LIG    1        3.985  -8.096  -3.188  0.00  0.00    -0.292 N 
ATOM     13  C   LIG    1        3.853  -6.642  -3.306  0.00  0.00    +0.133 C 
ATOM     14  C   LIG    1        5.160  -8.773  -3.743  0.00  0.00    +0.133 C 
ATOM     15  C   LIG    1        1.477  -6.922  -2.736  0.00  0.00    +0.122 C 
ENDBRANCH   2   5
BRANCH   1  16
ATOM     16  C   LIG    1       -0.188  -3.777  -5.079  0.00  0.00    +0.079 A 
ATOM     17  C   LIG    1       -0.823  -2.959  -4.157  0.00  0.00    +0.072 A 
ATOM     18  C   LIG    1       -1.196  -1.672  -4.514  0.00  0.00    +0.122 A 
ATOM     19  C   LIG    1       -0.924  -1.199  -5.789  0.00  0.00    +0.049 A 
ATOM     20  C   LIG    1       -0.285  -2.011  -6.709  0.00  0.00    +0.051 A 
ATOM     21  C   LIG    1        0.084  -3.299  -6.359  0.00  0.00    +0.141 A 
BRANCH  18  22
ATOM     22  O   LIG    1       -1.823  -0.872  -3.612  0.00  0.00    -0.495 OA
ATOM     23  C   LIG    1       -2.179   0.442  -4.047  0.00  0.00    +0.277 C 
ENDBRANCH  18  22
BRANCH  21  24
ATOM     24  O   LIG    1        0.712  -4.097  -7.265  0.00  0.00    -0.493 OA
ATOM     25  C   LIG    1        0.959  -3.541  -8.558  0.00  0.00    +0.277 C 
ENDBRANCH  21  24
ENDBRANCH   1  16
TORSDOF 4
