REMARK  Name = ZINC000082137208
REMARK                            x       y       z     vdW  Elec       q    Type
REMARK                         _______ _______ _______ _____ _____    ______ ____
ROOT
ATOM      1  C   LIG    1        0.094  -6.300   1.040  0.00  0.00    +0.044 C 
ATOM      2  C   LIG    1       -0.013  -7.004   2.395  0.00  0.00    +0.010 C 
ATOM      3  C   LIG    1       -0.026  -8.520   2.185  0.00  0.00    +0.019 C 
ATOM      4  C   LIG    1        1.284  -8.950   1.519  0.00  0.00    +0.108 C 
ATOM      5  N   LIG    1        1.467  -8.172   0.286  0.00  0.00    -0.301 N 
ATOM      6  C   LIG    1        1.686  -8.790  -0.891  0.00  0.00    +0.217 C 
ATOM      7  O   LIG    1        1.835  -8.136  -1.901  0.00  0.00    -0.276 OA
ATOM      8  C   LIG    1        1.406  -6.705   0.361  0.00  0.00    +0.114 C 
ENDROOT
BRANCH   6   9
ATOM      9  C   LIG    1        1.745 -10.295  -0.951  0.00  0.00    +0.117 C 
BRANCH   9  10
ATOM     10  C   LIG    1        2.002 -10.738  -2.393  0.00  0.00    +0.133 C 
BRANCH  10  11
ATOM     11  N   LIG    1        2.060 -12.200  -2.452  0.00  0.00    -0.319 N 
ATOM     12  C   LIG    1        3.158 -12.979  -2.299  0.00  0.00    +0.224 A 
ATOM     13  N   LIG    1        2.773 -14.221  -2.424  0.00  0.00    -0.138 NA
ATOM     14  N   LIG    1        1.507 -14.261  -2.645  0.00  0.00    -0.138 NA
ATOM     15  C   LIG    1        1.025 -13.049  -2.665  0.00  0.00    +0.224 A 
ENDBRANCH  10  11
ENDBRANCH   9  10
ENDBRANCH   6   9
BRANCH   1  16
ATOM     16  C   LIG    1        0.074  -4.785   1.249  0.00  0.00    +0.234 C 
BRANCH  16  17
ATOM     17  O   LIG    1        0.059  -4.129  -0.021  0.00  0.00    -0.492 OA
BRANCH  17  18
ATOM     18  C   LIG    1        0.040  -2.770  -0.013  0.00  0.00    +0.121 A 
ATOM     19  C   LIG    1        0.037  -2.082   1.191  0.00  0.00    +0.046 A 
ATOM     20  C   LIG    1        0.023  -0.701   1.196  0.00  0.00    +0.007 A 
ATOM     21  C   LIG    1        0.002  -0.004   0.002  0.00  0.00    -0.050 A 
ATOM     22  C   LIG    1       -0.018   1.503   0.010  0.00  0.00    +0.044 C 
ATOM     23  C   LIG    1        0.006  -0.688  -1.200  0.00  0.00    +0.007 A 
ATOM     24  C   LIG    1        0.025  -2.069  -1.210  0.00  0.00    +0.046 A 
ENDBRANCH  17  18
ENDBRANCH  16  17
ENDBRANCH   1  16
TORSDOF 6
