REMARK  Name = ZINC000082134959
REMARK                            x       y       z     vdW  Elec       q    Type
REMARK                         _______ _______ _______ _____ _____    ______ ____
ROOT
ATOM      1  O   LIG    1        0.002  -0.004   0.002  0.00  0.00    -0.275 OA
ATOM      2  C   LIG    1       -0.014   1.208   0.009  0.00  0.00    +0.220 C 
ATOM      3  C   LIG    1       -1.262   2.071   0.032  0.00  0.00    +0.114 C 
ATOM      4  C   LIG    1       -0.698   3.492   0.032  0.00  0.00    +0.073 C 
ATOM      5  C   LIG    1       -1.171   4.296   1.245  0.00  0.00    +0.123 C 
ATOM      6  N   LIG    1       -1.422   5.670   0.777  0.00  0.00    -0.309 N 
ATOM      7  C   LIG    1       -1.077   5.752  -0.655  0.00  0.00    +0.108 C 
ATOM      8  C   LIG    1        0.792   3.315   0.009  0.00  0.00    +0.227 C 
ATOM      9  O   LIG    1        1.610   4.210   0.003  0.00  0.00    -0.275 OA
ATOM     10  C   LIG    1       -1.198   4.296  -1.180  0.00  0.00    +0.037 C 
ATOM     11  N   LIG    1        1.067   2.000   0.003  0.00  0.00    -0.256 N 
ATOM     12  H   LIG    1        1.973   1.653  -0.011  0.00  0.00    +0.157 HD
ENDROOT
BRANCH   6  13
ATOM     13  C   LIG    1       -1.902   6.713   1.553  0.00  0.00    +0.161 A 
ATOM     14  S   LIG    1       -2.311   6.604   3.262  0.00  0.00    -0.060 S 
ATOM     15  C   LIG    1       -2.767   8.306   3.264  0.00  0.00    +0.076 A 
ATOM     16  C   LIG    1       -2.587   8.793   2.025  0.00  0.00    +0.080 A 
ATOM     17  N   LIG    1       -2.124   7.920   1.132  0.00  0.00    -0.225 NA
BRANCH  16  18
ATOM     18  C   LIG    1       -2.884  10.204   1.676  0.00  0.00    +0.001 A 
ATOM     19  C   LIG    1       -3.267  11.104   2.668  0.00  0.00    +0.013 A 
ATOM     20  C   LIG    1       -3.536  12.416   2.340  0.00  0.00    +0.039 A 
ATOM     21  C   LIG    1       -3.437  12.838   1.024  0.00  0.00    +0.123 A 
ATOM     22  F   LIG    1       -3.706  14.123   0.706  0.00  0.00    -0.205 F 
ATOM     23  C   LIG    1       -3.062  11.945   0.033  0.00  0.00    +0.039 A 
ATOM     24  C   LIG    1       -2.785  10.632   0.353  0.00  0.00    +0.013 A 
ENDBRANCH  16  18
ENDBRANCH   6  13
TORSDOF 2
