REMARK  Name = ZINC000058193887
REMARK                            x       y       z     vdW  Elec       q    Type
REMARK                         _______ _______ _______ _____ _____    ______ ____
ROOT
ATOM      1  N   LIG    1        0.060  -4.173  -0.030  0.00  0.00    -0.333 N 
ATOM      2  H   LIG    1        0.071  -4.665   0.806  0.00  0.00    +0.147 HD
ENDROOT
BRANCH   1   3
ATOM      3  C   LIG    1        0.041  -2.774  -0.019  0.00  0.00    +0.070 A 
ATOM      4  C   LIG    1        0.037  -2.085   1.192  0.00  0.00    +0.142 A 
ATOM      5  C   LIG    1        0.023  -0.700   1.197  0.00  0.00    +0.051 A 
ATOM      6  C   LIG    1        0.002  -0.004   0.002  0.00  0.00    -0.047 A 
ATOM      7  C   LIG    1       -0.018   1.503   0.010  0.00  0.00    +0.044 C 
ATOM      8  C   LIG    1        0.006  -0.687  -1.200  0.00  0.00    +0.005 A 
ATOM      9  C   LIG    1        0.025  -2.069  -1.214  0.00  0.00    +0.027 A 
BRANCH   4  10
ATOM     10  O   LIG    1        0.052  -2.771   2.367  0.00  0.00    -0.481 OA
BRANCH  10  11
ATOM     11  C   LIG    1        0.048  -1.998   3.569  0.00  0.00    +0.342 C 
BRANCH  11  12
ATOM     12  C   LIG    1        0.067  -2.936   4.778  0.00  0.00    +0.424 C 
ATOM     13  F   LIG    1        0.062  -2.180   5.955  0.00  0.00    -0.167 F 
ATOM     14  F   LIG    1       -1.064  -3.759   4.747  0.00  0.00    -0.167 F 
ATOM     15  F   LIG    1        1.221  -3.727   4.736  0.00  0.00    -0.167 F 
ENDBRANCH  11  12
ENDBRANCH  10  11
ENDBRANCH   4  10
ENDBRANCH   1   3
BRANCH   1  16
ATOM     16  C   LIG    1        0.065  -4.896  -1.305  0.00  0.00    +0.198 C 
BRANCH  16  17
ATOM     17  C   LIG    1        0.087  -6.379  -1.041  0.00  0.00    +0.237 C 
ATOM     18  O   LIG    1        0.098  -6.792   0.099  0.00  0.00    -0.274 OA
ATOM     19  N   LIG    1        0.095  -7.247  -2.072  0.00  0.00    -0.239 N 
ATOM     20  C   LIG    1        0.115  -8.574  -1.837  0.00  0.00    +0.306 C 
ATOM     21  O   LIG    1        0.126  -8.988  -0.694  0.00  0.00    -0.252 OA
ATOM     22  N   LIG    1        0.122  -9.441  -2.868  0.00  0.00    -0.296 N 
ATOM     23  H   LIG    1        0.113  -9.111  -3.780  0.00  0.00    +0.151 HD
ATOM     24  H   LIG    1        0.086  -6.916  -2.984  0.00  0.00    +0.159 HD
BRANCH  22  25
ATOM     25  C   LIG    1        0.144 -10.883  -2.612  0.00  0.00    +0.075 C 
ATOM     26  C   LIG    1       -0.784 -11.764  -3.451  0.00  0.00    +0.024 C 
ATOM     27  C   LIG    1        0.725 -11.786  -3.702  0.00  0.00    +0.024 C 
ENDBRANCH  22  25
ENDBRANCH  16  17
ENDBRANCH   1  16
TORSDOF 7
