REMARK  Name = ZINC000058193649
REMARK                            x       y       z     vdW  Elec       q    Type
REMARK                         _______ _______ _______ _____ _____    ______ ____
ROOT
ATOM      1  N   LIG    1       -1.357  -0.647  -0.545  0.00  0.00    -0.189 NA
ATOM      2  H   LIG    1       -0.610  -0.208  -0.110  0.00  0.00    +0.148 HD
ENDROOT
BRANCH   1   3
ATOM      3  S   LIG    1       -2.498   0.254  -1.340  0.00  0.00    +0.062 S 
ATOM      4  O   LIG    1       -2.149   1.616  -1.133  0.00  0.00    -0.153 OA
ATOM      5  O   LIG    1       -2.639  -0.326  -2.630  0.00  0.00    -0.153 OA
BRANCH   3   6
ATOM      6  C   LIG    1       -4.032   0.002  -0.510  0.00  0.00    +0.148 A 
ATOM      7  C   LIG    1       -4.526   0.762   0.554  0.00  0.00    +0.086 A 
ATOM      8  C   LIG    1       -3.841   1.945   1.189  0.00  0.00    +0.069 C 
ATOM      9  N   LIG    1       -5.691   0.276   0.898  0.00  0.00    -0.174 NA
ATOM     10  N   LIG    1       -5.971  -0.818   0.069  0.00  0.00    -0.269 N 
ATOM     11  C   LIG    1       -7.172  -1.654   0.121  0.00  0.00    +0.172 C 
ATOM     12  C   LIG    1       -4.937  -0.965  -0.787  0.00  0.00    +0.062 A 
ATOM     13  C   LIG    1       -4.814  -2.018  -1.858  0.00  0.00    +0.067 C 
ENDBRANCH   3   6
ENDBRANCH   1   3
BRANCH   1  14
ATOM     14  C   LIG    1       -1.477  -2.106  -0.500  0.00  0.00    +0.117 C 
BRANCH  14  15
ATOM     15  C   LIG    1       -0.097  -2.724  -0.270  0.00  0.00    +0.013 C 
ATOM     16  C   LIG    1        0.174  -4.098  -0.887  0.00  0.00    +0.014 C 
ATOM     17  C   LIG    1        0.832  -2.849  -1.479  0.00  0.00    +0.014 C 
BRANCH  15  18
ATOM     18  C   LIG    1        0.535  -2.425   1.065  0.00  0.00    +0.002 A 
ATOM     19  C   LIG    1        0.155  -3.143   2.190  0.00  0.00    +0.124 A 
ATOM     20  C   LIG    1        0.739  -2.865   3.417  0.00  0.00    +0.046 A 
ATOM     21  C   LIG    1        1.692  -1.870   3.518  0.00  0.00    +0.004 A 
ATOM     22  C   LIG    1        2.065  -1.152   2.397  0.00  0.00    +0.001 A 
ATOM     23  C   LIG    1        1.484  -1.427   1.172  0.00  0.00    +0.008 A 
BRANCH  19  24
ATOM     24  O   LIG    1       -0.782  -4.121   2.088  0.00  0.00    -0.495 OA
ATOM     25  C   LIG    1       -1.206  -4.743   3.303  0.00  0.00    +0.277 C 
ENDBRANCH  19  24
ENDBRANCH  15  18
ENDBRANCH  14  15
ENDBRANCH   1  14
TORSDOF 6
