REMARK  Name = ZINC000082156427
REMARK                            x       y       z     vdW  Elec       q    Type
REMARK                         _______ _______ _______ _____ _____    ______ ____
ROOT
ATOM      1  C   LIG    1        3.554   2.178  -0.020  0.00  0.00    +0.080 A 
ATOM      2  C   LIG    1        4.246   2.639   1.105  0.00  0.00    +0.051 A 
ATOM      3  C   LIG    1        5.190   3.505   0.680  0.00  0.00    +0.057 A 
ATOM      4  C   LIG    1        6.216   4.215   1.524  0.00  0.00    +0.160 C 
ATOM      5  N   LIG    1        6.256   5.624   1.113  0.00  0.00    -0.322 N 
ATOM      6  C   LIG    1        7.118   6.009   0.007  0.00  0.00    +0.107 C 
ATOM      7  C   LIG    1        7.196   4.850  -0.998  0.00  0.00    +0.042 C 
ATOM      8  C   LIG    1        5.803   4.549  -1.550  0.00  0.00    +0.145 C 
ATOM      9  N   LIG    1        5.072   3.639  -0.659  0.00  0.00    -0.266 N 
ATOM     10  N   LIG    1        4.055   2.763  -1.076  0.00  0.00    -0.174 NA
ENDROOT
BRANCH   5  11
ATOM     11  C   LIG    1        5.481   6.576   1.772  0.00  0.00    +0.069 A 
ATOM     12  C   LIG    1        5.980   7.264   2.880  0.00  0.00    +0.162 A 
ATOM     13  C   LIG    1        5.181   8.203   3.502  0.00  0.00    +0.150 A 
ATOM     14  N   LIG    1        3.958   8.445   3.067  0.00  0.00    -0.260 NA
ATOM     15  C   LIG    1        3.450   7.811   2.027  0.00  0.00    +0.112 A 
ATOM     16  F   LIG    1        7.231   7.022   3.331  0.00  0.00    -0.202 F 
ATOM     17  C   LIG    1        4.185   6.862   1.347  0.00  0.00    +0.046 A 
ENDBRANCH   5  11
BRANCH   1  18
ATOM     18  C   LIG    1        2.422   1.183  -0.015  0.00  0.00    +0.161 C 
BRANCH  18  19
ATOM     19  N   LIG    1        1.143   1.898   0.001  0.00  0.00    -0.309 N 
ATOM     20  C   LIG    1       -0.014   1.209   0.009  0.00  0.00    +0.216 C 
ATOM     21  O   LIG    1        0.002  -0.004   0.002  0.00  0.00    -0.276 OA
ATOM     22  H   LIG    1        1.130   2.868   0.007  0.00  0.00    +0.149 HD
BRANCH  20  23
ATOM     23  C   LIG    1       -1.330   1.944   0.019  0.00  0.00    +0.075 C 
ATOM     24  C   LIG    1       -2.555   1.015   0.020  0.00  0.00    +0.013 C 
ATOM     25  C   LIG    1       -2.486   1.052  -1.516  0.00  0.00    +0.001 C 
ATOM     26  C   LIG    1       -1.784   2.413  -1.373  0.00  0.00    +0.013 C 
ENDBRANCH  20  23
ENDBRANCH  18  19
ENDBRANCH   1  18
TORSDOF 4
