REMARK  Name = ZINC000009572773
REMARK                            x       y       z     vdW  Elec       q    Type
REMARK                         _______ _______ _______ _____ _____    ______ ____
ROOT
ATOM      1  N   LIG    1        4.236  -2.703  -4.237  0.00  0.00    -0.216 N 
ATOM      2  H   LIG    1        4.652  -3.454  -4.688  0.00  0.00    +0.174 HD
ENDROOT
BRANCH   1   3
ATOM      3  C   LIG    1        4.966  -1.532  -4.011  0.00  0.00    +0.048 A 
ATOM      4  C   LIG    1        5.930  -1.492  -3.009  0.00  0.00    +0.030 A 
ATOM      5  C   LIG    1        6.649  -0.338  -2.795  0.00  0.00    -0.016 A 
ATOM      6  C   LIG    1        7.741   0.024  -1.816  0.00  0.00    +0.133 C 
ATOM      7  C   LIG    1        8.065   1.466  -2.141  0.00  0.00    +0.222 C 
ATOM      8  O   LIG    1        8.894   2.160  -1.590  0.00  0.00    -0.275 OA
ATOM      9  N   LIG    1        7.262   1.834  -3.153  0.00  0.00    -0.285 N 
ATOM     10  H   LIG    1        7.267   2.717  -3.554  0.00  0.00    +0.155 HD
ATOM     11  C   LIG    1        6.417   0.798  -3.561  0.00  0.00    +0.037 A 
ATOM     12  C   LIG    1        5.447   0.755  -4.559  0.00  0.00    +0.025 A 
ATOM     13  C   LIG    1        4.728  -0.401  -4.781  0.00  0.00    +0.026 A 
ENDBRANCH   1   3
BRANCH   1  14
ATOM     14  S   LIG    1        2.661  -2.807  -3.736  0.00  0.00    +0.072 S 
ATOM     15  O   LIG    1        2.227  -4.124  -4.045  0.00  0.00    -0.150 OA
ATOM     16  O   LIG    1        2.008  -1.640  -4.219  0.00  0.00    -0.150 OA
BRANCH  14  17
ATOM     17  C   LIG    1        2.664  -2.683  -1.978  0.00  0.00    +0.109 A 
ATOM     18  C   LIG    1        2.882  -3.810  -1.207  0.00  0.00    +0.035 A 
ATOM     19  C   LIG    1        2.889  -3.715   0.171  0.00  0.00    -0.007 A 
ATOM     20  C   LIG    1        3.128  -4.944   1.010  0.00  0.00    +0.047 C 
ATOM     21  C   LIG    1        2.668  -2.489   0.781  0.00  0.00    +0.123 A 
ATOM     22  C   LIG    1        2.450  -1.360   0.006  0.00  0.00    +0.048 A 
ATOM     23  C   LIG    1        2.449  -1.459  -1.372  0.00  0.00    +0.032 A 
BRANCH  21  24
ATOM     24  O   LIG    1        2.670  -2.393   2.137  0.00  0.00    -0.495 OA
ATOM     25  C   LIG    1        2.435  -1.100   2.697  0.00  0.00    +0.277 C 
ENDBRANCH  21  24
ENDBRANCH  14  17
ENDBRANCH   1  14
TORSDOF 4
