REMARK  Name = ZINC000082138344
REMARK                            x       y       z     vdW  Elec       q    Type
REMARK                         _______ _______ _______ _____ _____    ______ ____
ROOT
ATOM      1  N   LIG    1       -4.467  -1.692  -2.794  0.00  0.00    -0.299 N 
ATOM      2  C   LIG    1       -5.708  -1.180  -2.675  0.00  0.00    +0.216 C 
ATOM      3  O   LIG    1       -6.365  -1.406  -1.681  0.00  0.00    -0.276 OA
ATOM      4  C   LIG    1       -3.674  -1.419  -3.995  0.00  0.00    +0.132 C 
ENDROOT
BRANCH   1   5
ATOM      5  C   LIG    1       -3.912  -2.522  -1.722  0.00  0.00    +0.163 C 
BRANCH   5   6
ATOM      6  C   LIG    1       -3.183  -1.646  -0.735  0.00  0.00    +0.066 A 
ATOM      7  C   LIG    1       -3.756  -1.180   0.378  0.00  0.00    +0.071 A 
ATOM      8  S   LIG    1       -2.561  -0.214   1.240  0.00  0.00    -0.080 S 
ATOM      9  C   LIG    1       -1.412  -0.526   0.013  0.00  0.00    +0.081 A 
ATOM     10  N   LIG    1       -1.929  -1.277  -0.900  0.00  0.00    -0.247 NA
BRANCH   9  11
ATOM     11  C   LIG    1        0.002  -0.004   0.002  0.00  0.00    +0.038 C 
ATOM     12  C   LIG    1        0.742  -0.511   1.242  0.00  0.00    +0.014 C 
ATOM     13  C   LIG    1       -0.019   1.526   0.010  0.00  0.00    +0.014 C 
ENDBRANCH   9  11
ENDBRANCH   5   6
ENDBRANCH   1   5
BRANCH   2  14
ATOM     14  C   LIG    1       -6.280  -0.327  -3.778  0.00  0.00    +0.101 C 
BRANCH  14  15
ATOM     15  C   LIG    1       -7.691   0.123  -3.395  0.00  0.00    +0.020 C 
ATOM     16  C   LIG    1       -8.639  -1.089  -3.357  0.00  0.00    +0.028 C 
ATOM     17  C   LIG    1      -10.093  -0.579  -3.309  0.00  0.00    +0.166 C 
ATOM     18  S   LIG    1      -10.054   1.047  -4.146  0.00  0.00    -0.031 S 
ATOM     19  O   LIG    1      -10.391   2.065  -3.213  0.00  0.00    -0.174 OA
ATOM     20  O   LIG    1      -10.754   0.959  -5.380  0.00  0.00    -0.174 OA
ATOM     21  C   LIG    1       -8.251   1.090  -4.471  0.00  0.00    +0.170 C 
ENDBRANCH  14  15
ENDBRANCH   2  14
TORSDOF 5
