REMARK  Name = ZINC000025706918
REMARK                            x       y       z     vdW  Elec       q    Type
REMARK                         _______ _______ _______ _____ _____    ______ ____
ROOT
ATOM      1  C   LIG    1       -1.790  -0.915   0.643  0.00  0.00    +0.078 C 
ATOM      2  C   LIG    1       -1.519  -2.421   0.639  0.00  0.00    +0.032 C 
ATOM      3  C   LIG    1       -2.820  -3.169   0.331  0.00  0.00    +0.109 C 
ATOM      4  N   LIG    1       -3.376  -2.652  -0.927  0.00  0.00    -0.296 N 
ATOM      5  C   LIG    1       -3.591  -1.205  -1.062  0.00  0.00    +0.109 C 
ATOM      6  C   LIG    1       -3.682  -3.490  -1.938  0.00  0.00    +0.265 C 
ATOM      7  O   LIG    1       -4.269  -3.071  -2.917  0.00  0.00    -0.268 OA
ATOM      8  C   LIG    1       -2.282  -0.479  -0.739  0.00  0.00    +0.032 C 
ENDROOT
BRANCH   1   9
ATOM      9  C   LIG    1       -0.519  -0.177   0.979  0.00  0.00    +0.214 C 
ATOM     10  O   LIG    1        0.502  -0.795   1.194  0.00  0.00    -0.276 OA
ATOM     11  N   LIG    1       -0.518   1.169   1.041  0.00  0.00    -0.329 N 
ATOM     12  H   LIG    1        0.300   1.644   1.258  0.00  0.00    +0.145 HD
ATOM     13  H   LIG    1       -1.334   1.664   0.865  0.00  0.00    +0.145 HD
ENDBRANCH   1   9
BRANCH   6  14
ATOM     14  C   LIG    1       -3.307  -4.912  -1.855  0.00  0.00    +0.133 A 
ATOM     15  N   LIG    1       -2.540  -5.390  -0.884  0.00  0.00    -0.234 NA
ATOM     16  C   LIG    1       -2.293  -6.663  -0.934  0.00  0.00    +0.109 A 
ATOM     17  S   LIG    1       -3.084  -7.356  -2.346  0.00  0.00    -0.075 S 
ATOM     18  C   LIG    1       -3.713  -5.823  -2.767  0.00  0.00    +0.080 A 
BRANCH  16  19
ATOM     19  C   LIG    1       -1.471  -7.414   0.039  0.00  0.00    +0.007 A 
ATOM     20  C   LIG    1       -0.896  -6.754   1.126  0.00  0.00    +0.013 A 
ATOM     21  C   LIG    1       -0.130  -7.458   2.031  0.00  0.00    +0.039 A 
ATOM     22  C   LIG    1        0.070  -8.819   1.862  0.00  0.00    +0.123 A 
ATOM     23  F   LIG    1        0.821  -9.505   2.751  0.00  0.00    -0.205 F 
ATOM     24  C   LIG    1       -0.499  -9.480   0.784  0.00  0.00    +0.039 A 
ATOM     25  C   LIG    1       -1.271  -8.785  -0.123  0.00  0.00    +0.013 A 
ENDBRANCH  16  19
ENDBRANCH   6  14
TORSDOF 3
