REMARK  Name = ZINC000175695349
REMARK                            x       y       z     vdW  Elec       q    Type
REMARK                         _______ _______ _______ _____ _____    ______ ____
ROOT
ATOM      1  N   LIG    1       -1.998  -1.074   3.095  0.00  0.00    -0.296 N 
ATOM      2  H   LIG    1       -1.582  -1.898   3.394  0.00  0.00    +0.151 HD
ATOM      3  C   LIG    1       -3.335  -1.011   2.943  0.00  0.00    +0.302 C 
ATOM      4  N   LIG    1       -4.095  -2.092   3.206  0.00  0.00    -0.284 N 
ATOM      5  C   LIG    1       -3.629  -3.418   3.674  0.00  0.00    +0.114 C 
ATOM      6  C   LIG    1       -4.526  -4.408   2.888  0.00  0.00    +0.022 C 
ATOM      7  C   LIG    1       -4.632  -5.745   3.625  0.00  0.00    +0.011 C 
ATOM      8  C   LIG    1       -5.891  -3.684   2.858  0.00  0.00    +0.078 C 
ATOM      9  C   LIG    1       -5.562  -2.196   3.093  0.00  0.00    +0.128 C 
ATOM     10  O   LIG    1       -3.856   0.022   2.568  0.00  0.00    -0.253 OA
ENDROOT
BRANCH   8  11
ATOM     11  N   LIG    1       -6.538  -3.869   1.552  0.00  0.00    -0.293 NA
ATOM     12  C   LIG    1       -7.787  -3.098   1.468  0.00  0.00    +0.113 C 
ATOM     13  C   LIG    1       -8.396  -3.272   0.074  0.00  0.00    +0.175 C 
ATOM     14  O   LIG    1       -8.601  -4.664  -0.181  0.00  0.00    -0.377 OA
ATOM     15  C   LIG    1       -7.405  -5.445  -0.108  0.00  0.00    +0.175 C 
ATOM     16  C   LIG    1       -6.786  -5.293   1.284  0.00  0.00    +0.113 C 
ENDBRANCH   8  11
BRANCH   1  17
ATOM     17  C   LIG    1       -1.171   0.101   2.809  0.00  0.00    +0.076 C 
ATOM     18  C   LIG    1       -1.122   1.003   4.044  0.00  0.00    +0.028 C 
BRANCH  17  19
ATOM     19  C   LIG    1        0.246  -0.347   2.448  0.00  0.00    +0.057 C 
BRANCH  19  20
ATOM     20  C   LIG    1        0.212  -1.133   1.163  0.00  0.00    -0.043 A 
ATOM     21  C   LIG    1        0.140  -2.513   1.198  0.00  0.00    +0.004 A 
ATOM     22  C   LIG    1        0.109  -3.234   0.019  0.00  0.00    +0.000 A 
ATOM     23  C   LIG    1        0.147  -2.575  -1.195  0.00  0.00    +0.000 A 
ATOM     24  C   LIG    1        0.215  -1.195  -1.231  0.00  0.00    +0.003 A 
ATOM     25  C   LIG    1        0.245  -0.474  -0.052  0.00  0.00    -0.047 A 
ATOM     26  C   LIG    1        0.320   1.031  -0.090  0.00  0.00    +0.044 C 
ENDBRANCH  19  20
ENDBRANCH  17  19
ENDBRANCH   1  17
TORSDOF 4
