REMARK  Name = ZINC000095991445
REMARK                            x       y       z     vdW  Elec       q    Type
REMARK                         _______ _______ _______ _____ _____    ______ ____
ROOT
ATOM      1  C   LIG    1        2.333   1.173  -0.104  0.00  0.00    +0.035 A 
ATOM      2  C   LIG    1        3.555   1.833  -0.106  0.00  0.00    +0.040 A 
ATOM      3  C   LIG    1        4.728   1.110  -0.205  0.00  0.00    +0.050 A 
ATOM      4 BR   LIG    1        6.393   2.007  -0.201  0.00  0.00    -0.048 Br
ATOM      5  C   LIG    1        4.686  -0.269  -0.313  0.00  0.00    +0.140 A 
ATOM      6  C   LIG    1        3.470  -0.927  -0.317  0.00  0.00    +0.035 A 
ATOM      7  C   LIG    1        2.294  -0.211  -0.213  0.00  0.00    +0.025 A 
ENDROOT
BRANCH   1   8
ATOM      8  N   LIG    1        1.143   1.901   0.001  0.00  0.00    -0.280 N 
ATOM      9  H   LIG    1        0.391   1.533   0.490  0.00  0.00    +0.155 HD
ATOM     10  C   LIG    1        1.043   3.115  -0.576  0.00  0.00    +0.269 C 
ATOM     11  O   LIG    1        2.011   3.613  -1.117  0.00  0.00    -0.268 OA
BRANCH  10  12
ATOM     12  C   LIG    1       -0.243   3.842  -0.547  0.00  0.00    +0.154 A 
ATOM     13  N   LIG    1       -1.337   3.383   0.018  0.00  0.00    -0.186 NA
ATOM     14  S   LIG    1       -2.467   4.442  -0.167  0.00  0.00    +0.116 S 
ATOM     15  N   LIG    1       -1.663   5.521  -0.955  0.00  0.00    -0.198 NA
ATOM     16  C   LIG    1       -0.442   5.101  -1.111  0.00  0.00    +0.155 A 
ENDBRANCH  10  12
ENDBRANCH   1   8
BRANCH   5  17
ATOM     17  N   LIG    1        5.944  -1.040  -0.425  0.00  0.00    +0.058 N 
ATOM     18  O   LIG    1        7.016  -0.461  -0.422  0.00  0.00    -0.126 OA
ATOM     19  O   LIG    1        5.908  -2.254  -0.521  0.00  0.00    -0.126 OA
ENDBRANCH   5  17
TORSDOF 3
