REMARK  Name = ZINC000095993906
REMARK                            x       y       z     vdW  Elec       q    Type
REMARK                         _______ _______ _______ _____ _____    ______ ____
ROOT
ATOM      1  C   LIG    1       -3.599  -4.290  -1.770  0.00  0.00    +0.122 C 
ENDROOT
BRANCH   1   2
ATOM      2  N   LIG    1       -2.482  -3.489  -1.263  0.00  0.00    -0.224 N 
ATOM      3  C   LIG    1       -2.513  -2.788  -0.113  0.00  0.00    +0.249 C 
ATOM      4  O   LIG    1       -3.436  -2.704   0.669  0.00  0.00    -0.273 OA
ATOM      5  C   LIG    1       -1.154  -2.126   0.002  0.00  0.00    +0.133 C 
ATOM      6  C   LIG    1       -0.426  -2.606   1.259  0.00  0.00    +0.044 C 
ATOM      7  N   LIG    1       -0.448  -2.574  -1.212  0.00  0.00    -0.283 N 
ATOM      8  H   LIG    1        0.457  -2.343  -1.474  0.00  0.00    +0.151 HD
ATOM      9  C   LIG    1       -1.304  -3.364  -1.885  0.00  0.00    +0.309 C 
ATOM     10  O   LIG    1       -1.037  -3.904  -2.941  0.00  0.00    -0.252 OA
BRANCH   5  11
ATOM     11  C   LIG    1       -1.295  -0.603   0.011  0.00  0.00    +0.194 C 
BRANCH  11  12
ATOM     12  O   LIG    1        0.002  -0.004   0.002  0.00  0.00    -0.380 OA
ATOM     13  C   LIG    1       -0.017   1.425   0.010  0.00  0.00    +0.194 C 
ENDBRANCH  11  12
ENDBRANCH   5  11
ENDBRANCH   1   2
BRANCH   1  14
ATOM     14  C   LIG    1       -3.488  -5.717  -1.232  0.00  0.00    +0.055 C 
BRANCH  14  15
ATOM     15  C   LIG    1       -4.638  -6.541  -1.753  0.00  0.00    -0.042 A 
ATOM     16  C   LIG    1       -5.820  -6.605  -1.040  0.00  0.00    +0.004 A 
ATOM     17  C   LIG    1       -6.877  -7.360  -1.515  0.00  0.00    +0.004 A 
ATOM     18  C   LIG    1       -6.753  -8.052  -2.704  0.00  0.00    +0.046 A 
ATOM     19  C   LIG    1       -5.567  -7.990  -3.421  0.00  0.00    +0.130 A 
ATOM     20  C   LIG    1       -4.510  -7.227  -2.945  0.00  0.00    +0.049 A 
BRANCH  19  21
ATOM     21  O   LIG    1       -5.442  -8.669  -4.591  0.00  0.00    -0.406 OA
BRANCH  21  22
ATOM     22  C   LIG    1       -6.573  -9.429  -5.024  0.00  0.00    +0.575 C 
ATOM     23  F   LIG    1       -6.883 -10.394  -4.060  0.00  0.00    -0.133 F 
ATOM     24  F   LIG    1       -7.668  -8.576  -5.199  0.00  0.00    -0.133 F 
ATOM     25  F   LIG    1       -6.274 -10.060  -6.236  0.00  0.00    -0.133 F 
ENDBRANCH  21  22
ENDBRANCH  19  21
ENDBRANCH  14  15
ENDBRANCH   1  14
TORSDOF 7
