REMARK  Name = ZINC000069601914
REMARK                            x       y       z     vdW  Elec       q    Type
REMARK                         _______ _______ _______ _____ _____    ______ ____
ROOT
ATOM      1  C   LIG    1        0.055  -3.301   1.421  0.00  0.00    +0.093 C 
ATOM      2  C   LIG    1       -1.185  -4.138   1.091  0.00  0.00    +0.122 C 
ATOM      3  N   LIG    1       -1.083  -5.429   1.786  0.00  0.00    -0.180 NA
ATOM      4  C   LIG    1        0.128  -6.239   1.599  0.00  0.00    +0.109 C 
ATOM      5  C   LIG    1        1.352  -5.378   1.924  0.00  0.00    +0.018 C 
ATOM      6  C   LIG    1        1.313  -4.103   1.079  0.00  0.00    +0.015 C 
ENDROOT
BRANCH   1   7
ATOM      7  C   LIG    1        0.033  -2.030   0.612  0.00  0.00    +0.232 A 
ATOM      8  N   LIG    1        0.023  -0.806   1.082  0.00  0.00    -0.196 NA
ATOM      9  C   LIG    1        0.002  -0.004   0.002  0.00  0.00    +0.169 A 
ATOM     10  C   LIG    1       -0.018   1.503   0.010  0.00  0.00    +0.091 C 
ATOM     11  N   LIG    1        0.008  -0.767  -1.050  0.00  0.00    -0.062 NA
ATOM     12  O   LIG    1        0.026  -1.935  -0.721  0.00  0.00    -0.338 OA
ENDBRANCH   1   7
BRANCH   3  13
ATOM     13  S   LIG    1       -2.311  -5.959   2.764  0.00  0.00    +0.032 S 
ATOM     14  O   LIG    1       -2.186  -7.374   2.746  0.00  0.00    -0.158 OA
ATOM     15  O   LIG    1       -3.470  -5.319   2.248  0.00  0.00    -0.158 OA
BRANCH  13  16
ATOM     16  C   LIG    1       -1.899  -5.304   4.404  0.00  0.00    +0.188 C 
BRANCH  16  17
ATOM     17  C   LIG    1       -2.971  -5.731   5.408  0.00  0.00    +0.012 C 
ATOM     18  C   LIG    1       -2.691  -5.076   6.763  0.00  0.00    +0.005 C 
ATOM     19  C   LIG    1       -3.764  -5.503   7.766  0.00  0.00    +0.000 C 
ATOM     20  C   LIG    1       -3.741  -7.025   7.921  0.00  0.00    +0.000 C 
ATOM     21  C   LIG    1       -4.021  -7.679   6.567  0.00  0.00    +0.000 C 
ATOM     22  C   LIG    1       -2.948  -7.253   5.562  0.00  0.00    +0.005 C 
ENDBRANCH  16  17
ENDBRANCH  13  16
ENDBRANCH   3  13
TORSDOF 4
