REMARK  Name = ZINC000058191374
REMARK                            x       y       z     vdW  Elec       q    Type
REMARK                         _______ _______ _______ _____ _____    ______ ____
ROOT
ATOM      1  C   LIG    1       -1.395  -2.751  -3.023  0.00  0.00    +0.088 A 
ATOM      2  N   LIG    1       -2.104  -3.829  -2.807  0.00  0.00    -0.169 NA
ATOM      3  N   LIG    1       -3.367  -3.646  -3.383  0.00  0.00    -0.236 N 
ATOM      4  C   LIG    1       -3.390  -2.417  -3.953  0.00  0.00    +0.048 A 
ATOM      5  C   LIG    1       -4.290  -1.480  -4.730  0.00  0.00    +0.056 C 
ATOM      6  C   LIG    1       -3.336  -0.430  -5.344  0.00  0.00    +0.011 C 
ATOM      7  C   LIG    1       -2.150  -0.459  -4.355  0.00  0.00    +0.039 C 
ATOM      8  C   LIG    1       -2.186  -1.841  -3.740  0.00  0.00    -0.001 A 
ENDROOT
BRANCH   3   9
ATOM      9  C   LIG    1       -4.420  -4.570  -3.372  0.00  0.00    +0.066 A 
ATOM     10  C   LIG    1       -5.734  -4.127  -3.287  0.00  0.00    +0.028 A 
ATOM     11  C   LIG    1       -6.770  -5.040  -3.275  0.00  0.00    +0.002 A 
ATOM     12  C   LIG    1       -6.500  -6.394  -3.348  0.00  0.00    +0.000 A 
ATOM     13  C   LIG    1       -5.194  -6.839  -3.433  0.00  0.00    +0.002 A 
ATOM     14  C   LIG    1       -4.154  -5.930  -3.451  0.00  0.00    +0.028 A 
ENDBRANCH   3   9
BRANCH   1  15
ATOM     15  C   LIG    1        0.025  -2.523  -2.573  0.00  0.00    +0.204 C 
BRANCH  15  16
ATOM     16  N   LIG    1        0.023  -1.915  -1.240  0.00  0.00    -0.222 N 
ATOM     17  C   LIG    1        0.040  -2.715  -0.154  0.00  0.00    +0.285 A 
ATOM     18  C   LIG    1        0.037  -2.091   1.175  0.00  0.00    +0.122 A 
ATOM     19  C   LIG    1        0.023  -0.698   1.218  0.00  0.00    -0.005 A 
ATOM     20  C   LIG    1        0.020   0.039   2.532  0.00  0.00    +0.047 C 
ATOM     21  C   LIG    1        0.002  -0.004   0.002  0.00  0.00    +0.063 A 
ATOM     22  C   LIG    1       -0.018   1.503   0.010  0.00  0.00    +0.068 C 
ATOM     23  O   LIG    1        0.057  -3.928  -0.274  0.00  0.00    -0.265 OA
ATOM     24  N   LIG    1        0.005  -0.638  -1.137  0.00  0.00    -0.173 NA
BRANCH  18  25
ATOM     25  C   LIG    1        0.055  -2.877   2.371  0.00  0.00    +0.105 C 
ATOM     26  N   LIG    1        0.069  -3.501   3.321  0.00  0.00    -0.191 NA
ENDBRANCH  18  25
ENDBRANCH  15  16
ENDBRANCH   1  15
TORSDOF 4
