REMARK  Name = ZINC000266893381
REMARK                            x       y       z     vdW  Elec       q    Type
REMARK                         _______ _______ _______ _____ _____    ______ ____
ROOT
ATOM      1  C   LIG    1        2.335   1.169  -0.104  0.00  0.00    +0.036 A 
ATOM      2  C   LIG    1        3.557   1.831  -0.106  0.00  0.00    +0.063 A 
ATOM      3  C   LIG    1        4.732   1.111  -0.205  0.00  0.00    +0.146 A 
ATOM      4  F   LIG    1        5.920   1.753  -0.202  0.00  0.00    -0.203 F 
ATOM      5  C   LIG    1        4.690  -0.276  -0.314  0.00  0.00    +0.063 A 
ATOM      6  C   LIG    1        3.469  -0.935  -0.317  0.00  0.00    +0.027 A 
ATOM      7  C   LIG    1        2.295  -0.214  -0.213  0.00  0.00    +0.025 A 
ENDROOT
BRANCH   1   8
ATOM      8  N   LIG    1        1.143   1.899   0.001  0.00  0.00    -0.284 N 
ATOM      9  H   LIG    1        0.391   1.530   0.490  0.00  0.00    +0.155 HD
ATOM     10  C   LIG    1        1.043   3.112  -0.576  0.00  0.00    +0.238 C 
ATOM     11  O   LIG    1        2.009   3.609  -1.115  0.00  0.00    -0.273 OA
BRANCH  10  12
ATOM     12  C   LIG    1       -0.269   3.854  -0.547  0.00  0.00    +0.170 C 
ATOM     13  N   LIG    1       -0.020   5.260  -0.770  0.00  0.00    -0.294 N 
ATOM     14  H   LIG    1        0.553   5.760  -0.167  0.00  0.00    +0.150 HD
ATOM     15  C   LIG    1       -0.591   5.856  -1.810  0.00  0.00    +0.273 C 
ATOM     16  O   LIG    1       -0.463   7.029  -2.104  0.00  0.00    -0.263 OA
ATOM     17  S   LIG    1       -1.565   4.683  -2.703  0.00  0.00    -0.065 S 
ATOM     18  C   LIG    1       -1.199   3.268  -1.617  0.00  0.00    +0.110 C 
ENDBRANCH  10  12
ENDBRANCH   1   8
BRANCH   5  19
ATOM     19  N   LIG    1        5.881  -1.006  -0.420  0.00  0.00    -0.339 N 
ATOM     20  H   LIG    1        6.734  -0.545  -0.417  0.00  0.00    +0.146 HD
BRANCH  19  21
ATOM     21  C   LIG    1        5.837  -2.466  -0.535  0.00  0.00    +0.133 C 
BRANCH  21  22
ATOM     22  C   LIG    1        7.262  -3.013  -0.636  0.00  0.00    +0.135 C 
ATOM     23  O   LIG    1        7.958  -2.787   0.596  0.00  0.00    -0.375 OA
ATOM     24  C   LIG    1        8.331  -4.045   1.184  0.00  0.00    +0.160 C 
ATOM     25  C   LIG    1        8.400  -5.041   0.000  0.00  0.00    +0.031 C 
ATOM     26  C   LIG    1        7.222  -4.537  -0.878  0.00  0.00    +0.035 C 
ENDBRANCH  21  22
ENDBRANCH  19  21
ENDBRANCH   5  19
TORSDOF 5
