REMARK  Name = ZINC000058193210
REMARK                            x       y       z     vdW  Elec       q    Type
REMARK                         _______ _______ _______ _____ _____    ______ ____
ROOT
ATOM      1  O   LIG    1        0.002  -0.004   0.002  0.00  0.00    -0.276 OA
ATOM      2  C   LIG    1       -0.014   1.209   0.009  0.00  0.00    +0.216 C 
ATOM      3  N   LIG    1       -1.191   1.867   0.018  0.00  0.00    -0.299 N 
ATOM      4  C   LIG    1       -1.233   3.337   0.020  0.00  0.00    +0.123 C 
ATOM      5  C   LIG    1       -2.166   3.798  -1.105  0.00  0.00    +0.103 C 
ATOM      6  N   LIG    1       -3.470   3.139  -0.957  0.00  0.00    -0.295 NA
ATOM      7  C   LIG    1       -3.350   1.682  -1.099  0.00  0.00    +0.103 C 
ATOM      8  C   LIG    1       -2.466   1.133   0.020  0.00  0.00    +0.123 C 
ENDROOT
BRANCH   6   9
ATOM      9  C   LIG    1       -4.446   3.682  -1.911  0.00  0.00    +0.119 C 
BRANCH   9  10
ATOM     10  C   LIG    1       -5.821   3.167  -1.572  0.00  0.00    -0.033 A 
ATOM     11  C   LIG    1       -6.628   3.873  -0.700  0.00  0.00    +0.005 A 
ATOM     12  C   LIG    1       -7.891   3.402  -0.392  0.00  0.00    +0.000 A 
ATOM     13  C   LIG    1       -8.343   2.220  -0.950  0.00  0.00    +0.000 A 
ATOM     14  C   LIG    1       -7.534   1.512  -1.818  0.00  0.00    +0.000 A 
ATOM     15  C   LIG    1       -6.273   1.985  -2.129  0.00  0.00    +0.005 A 
ENDBRANCH   9  10
ENDBRANCH   6   9
BRANCH   2  16
ATOM     16  C   LIG    1        1.280   1.980   0.001  0.00  0.00    +0.097 C 
BRANCH  16  17
ATOM     17  C   LIG    1        2.457   1.002  -0.016  0.00  0.00    +0.028 C 
BRANCH  17  18
ATOM     18  C   LIG    1        3.771   1.784  -0.024  0.00  0.00    +0.105 C 
BRANCH  18  19
ATOM     19  N   LIG    1        4.897   0.848  -0.040  0.00  0.00    -0.313 N 
ATOM     20  H   LIG    1        4.733  -0.108  -0.044  0.00  0.00    +0.149 HD
BRANCH  19  21
ATOM     21  C   LIG    1        6.196   1.327  -0.050  0.00  0.00    +0.215 A 
ATOM     22  N   LIG    1        6.402   2.635  -0.039  0.00  0.00    -0.223 NA
ATOM     23  C   LIG    1        7.631   3.126  -0.048  0.00  0.00    +0.116 A 
ATOM     24  C   LIG    1        8.707   2.253  -0.068  0.00  0.00    +0.039 A 
ATOM     25  C   LIG    1        8.455   0.890  -0.079  0.00  0.00    +0.116 A 
ATOM     26  N   LIG    1        7.203   0.466  -0.064  0.00  0.00    -0.223 NA
ENDBRANCH  19  21
ENDBRANCH  18  19
ENDBRANCH  17  18
ENDBRANCH  16  17
ENDBRANCH   2  16
TORSDOF 7
