REMARK  Name = ZINC000095993705
REMARK                            x       y       z     vdW  Elec       q    Type
REMARK                         _______ _______ _______ _____ _____    ______ ____
ROOT
ATOM      1  N   LIG    1       -1.378  -0.494   0.013  0.00  0.00    -0.346 N 
ATOM      2  C   LIG    1       -1.970  -0.719   1.193  0.00  0.00    +0.103 A 
ATOM      3  C   LIG    1       -3.256  -1.208   1.290  0.00  0.00    +0.100 A 
ATOM      4  C   LIG    1       -4.004  -1.492   0.054  0.00  0.00    +0.202 A 
ATOM      5  O   LIG    1       -5.143  -1.924   0.086  0.00  0.00    -0.286 OA
ATOM      6  C   LIG    1       -3.317  -1.230  -1.224  0.00  0.00    +0.047 A 
ATOM      7  C   LIG    1       -3.948  -1.469  -2.444  0.00  0.00    +0.033 A 
ATOM      8  C   LIG    1       -3.275  -1.213  -3.620  0.00  0.00    +0.042 A 
ATOM      9  C   LIG    1       -1.978  -0.720  -3.591  0.00  0.00    +0.022 A 
ATOM     10  C   LIG    1       -1.343  -0.479  -2.393  0.00  0.00    +0.028 A 
ATOM     11 CL   LIG    1       -4.054  -1.508  -5.144  0.00  0.00    -0.084 Cl
ATOM     12  C   LIG    1       -2.005  -0.726  -1.193  0.00  0.00    +0.053 A 
ENDROOT
BRANCH   3  13
ATOM     13  C   LIG    1       -3.871  -1.442   2.606  0.00  0.00    +0.249 C 
ATOM     14  O   LIG    1       -3.211  -1.302   3.619  0.00  0.00    -0.270 OA
ATOM     15  N   LIG    1       -5.164  -1.811   2.690  0.00  0.00    -0.311 N 
ATOM     16  H   LIG    1       -5.670  -1.994   1.883  0.00  0.00    +0.149 HD
BRANCH  15  17
ATOM     17  C   LIG    1       -5.807  -1.935   4.000  0.00  0.00    +0.107 C 
BRANCH  17  18
ATOM     18  C   LIG    1       -7.264  -2.363   3.815  0.00  0.00    +0.005 C 
ATOM     19  C   LIG    1       -7.310  -3.766   3.208  0.00  0.00    +0.009 C 
BRANCH  18  20
ATOM     20  C   LIG    1       -7.970  -2.372   5.173  0.00  0.00    +0.032 C 
BRANCH  20  21
ATOM     21  C   LIG    1       -9.455  -2.679   4.974  0.00  0.00    +0.156 C 
BRANCH  21  22
ATOM     22  O   LIG    1      -10.114  -2.687   6.242  0.00  0.00    -0.395 OA
ATOM     23  H   LIG    1      -11.061  -2.875   6.192  0.00  0.00    +0.209 HD
ENDBRANCH  21  22
ENDBRANCH  20  21
ENDBRANCH  18  20
ENDBRANCH  17  18
ENDBRANCH  15  17
ENDBRANCH   3  13
BRANCH   1  24
ATOM     24  C   LIG    1       -0.009   0.027   0.003  0.00  0.00    +0.118 C 
ATOM     25  C   LIG    1       -0.046   1.557   0.006  0.00  0.00    +0.027 C 
ENDBRANCH   1  24
TORSDOF 7
