REMARK  Name = ZINC000042367889
REMARK                            x       y       z     vdW  Elec       q    Type
REMARK                         _______ _______ _______ _____ _____    ______ ____
ROOT
ATOM      1  C   LIG    1        0.780  -1.133   3.576  0.00  0.00    +0.131 C 
ENDROOT
BRANCH   1   2
ATOM      2  C   LIG    1       -0.176  -1.203   4.739  0.00  0.00    -0.034 A 
ATOM      3  C   LIG    1       -0.341  -0.105   5.562  0.00  0.00    +0.028 A 
ATOM      4  C   LIG    1       -1.218  -0.162   6.633  0.00  0.00    +0.086 A 
ATOM      5 CL   LIG    1       -1.424   1.217   7.666  0.00  0.00    -0.080 Cl
ATOM      6  C   LIG    1       -1.931  -1.325   6.875  0.00  0.00    +0.180 A 
ATOM      7  O   LIG    1       -2.797  -1.396   7.926  0.00  0.00    -0.487 OA
ATOM      8  C   LIG    1       -4.183  -1.481   7.589  0.00  0.00    +0.232 C 
ATOM      9  C   LIG    1       -4.582  -2.921   7.307  0.00  0.00    +0.082 C 
ATOM     10  C   LIG    1       -3.883  -3.486   6.080  0.00  0.00    +0.232 C 
ATOM     11  O   LIG    1       -2.473  -3.567   6.293  0.00  0.00    -0.488 OA
ATOM     12  C   LIG    1       -1.765  -2.426   6.046  0.00  0.00    +0.164 A 
ATOM     13  C   LIG    1       -0.891  -2.364   4.974  0.00  0.00    +0.053 A 
ENDBRANCH   1   2
BRANCH   1  14
ATOM     14  C   LIG    1        0.051  -0.633   2.355  0.00  0.00    +0.218 C 
ATOM     15  O   LIG    1       -1.129  -0.361   2.423  0.00  0.00    -0.275 OA
ATOM     16  N   LIG    1        0.711  -0.489   1.189  0.00  0.00    -0.311 N 
ATOM     17  H   LIG    1        1.654  -0.707   1.135  0.00  0.00    +0.149 HD
BRANCH  16  18
ATOM     18  C   LIG    1        0.002  -0.004   0.002  0.00  0.00    +0.091 C 
ATOM     19  C   LIG    1       -0.019   1.526   0.010  0.00  0.00    +0.029 C 
BRANCH  18  20
ATOM     20  C   LIG    1        0.718  -0.497  -1.257  0.00  0.00    +0.165 C 
BRANCH  20  21
ATOM     21  N   LIG    1        0.634  -1.958  -1.325  0.00  0.00    -0.270 N 
ATOM     22  N   LIG    1        1.044  -2.855  -0.331  0.00  0.00    -0.180 NA
ATOM     23  C   LIG    1        0.807  -4.071  -0.753  0.00  0.00    +0.134 A 
ATOM     24  C   LIG    1        0.249  -3.987  -2.033  0.00  0.00    +0.041 A 
ATOM     25  C   LIG    1        0.153  -2.678  -2.361  0.00  0.00    +0.108 A 
ENDBRANCH  20  21
ENDBRANCH  18  20
ENDBRANCH  16  18
ENDBRANCH   1  14
TORSDOF 5
