REMARK  Name = ZINC000025827797
REMARK                            x       y       z     vdW  Elec       q    Type
REMARK                         _______ _______ _______ _____ _____    ______ ____
ROOT
ATOM      1  C   LIG    1        4.897  -3.340   3.253  0.00  0.00    +0.264 C 
ATOM      2  O   LIG    1        5.544  -3.741   4.201  0.00  0.00    -0.268 OA
ATOM      3  N   LIG    1        5.511  -3.074   2.083  0.00  0.00    -0.310 N 
ATOM      4  H   LIG    1        4.995  -2.754   1.326  0.00  0.00    +0.149 HD
ENDROOT
BRANCH   1   5
ATOM      5  C   LIG    1        3.437  -3.145   3.384  0.00  0.00    +0.146 A 
ATOM      6  C   LIG    1        2.795  -3.425   4.614  0.00  0.00    +0.040 A 
ATOM      7  C   LIG    1        1.448  -3.233   4.697  0.00  0.00    +0.074 A 
ATOM      8  C   LIG    1        0.775  -2.760   3.548  0.00  0.00    +0.267 A 
ATOM      9  O   LIG    1       -0.430  -2.573   3.576  0.00  0.00    -0.266 OA
ATOM     10  N   LIG    1        1.471  -2.526   2.420  0.00  0.00    -0.229 N 
ATOM     11  N   LIG    1        2.740  -2.712   2.357  0.00  0.00    -0.164 NA
BRANCH  10  12
ATOM     12  C   LIG    1        0.763  -2.041   1.233  0.00  0.00    +0.147 C 
BRANCH  12  13
ATOM     13  C   LIG    1        0.742  -0.511   1.242  0.00  0.00    +0.023 C 
BRANCH  13  14
ATOM     14  C   LIG    1        0.002  -0.004   0.002  0.00  0.00    -0.002 C 
ATOM     15  C   LIG    1       -0.019   1.526   0.010  0.00  0.00    +0.004 C 
ENDBRANCH  13  14
ENDBRANCH  12  13
ENDBRANCH  10  12
ENDBRANCH   1   5
BRANCH   3  16
ATOM     16  C   LIG    1        6.957  -3.268   1.954  0.00  0.00    +0.109 C 
BRANCH  16  17
ATOM     17  C   LIG    1        7.397  -2.896   0.536  0.00  0.00    +0.057 C 
BRANCH  17  18
ATOM     18  C   LIG    1        8.885  -3.095   0.403  0.00  0.00    -0.004 A 
ATOM     19  C   LIG    1        9.745  -2.032   0.599  0.00  0.00    +0.010 A 
ATOM     20  C   LIG    1       11.110  -2.214   0.477  0.00  0.00    -0.050 A 
ATOM     21  C   LIG    1       12.046  -1.053   0.692  0.00  0.00    +0.044 C 
ATOM     22  C   LIG    1       11.618  -3.460   0.158  0.00  0.00    +0.007 A 
ATOM     23  C   LIG    1       10.762  -4.526  -0.039  0.00  0.00    +0.046 A 
ATOM     24  C   LIG    1        9.392  -4.348   0.089  0.00  0.00    +0.123 A 
BRANCH  24  25
ATOM     25  O   LIG    1        8.548  -5.395  -0.105  0.00  0.00    -0.495 OA
ATOM     26  C   LIG    1        9.140  -6.653  -0.437  0.00  0.00    +0.277 C 
ENDBRANCH  24  25
ENDBRANCH  17  18
ENDBRANCH  16  17
ENDBRANCH   3  16
TORSDOF 8
