REMARK  Name = ZINC000012973196
REMARK                            x       y       z     vdW  Elec       q    Type
REMARK                         _______ _______ _______ _____ _____    ______ ____
ROOT
ATOM      1  C   LIG    1       -0.018   1.461   0.010  0.00  0.00    +0.132 C 
ATOM      2  N   LIG    1        0.002  -0.004   0.002  0.00  0.00    -0.175 NA
ENDROOT
BRANCH   2   3
ATOM      3  S   LIG    1        0.000  -0.824  -1.437  0.00  0.00    +0.061 S 
ATOM      4  O   LIG    1       -0.525  -2.116  -1.161  0.00  0.00    -0.153 OA
ATOM      5  O   LIG    1       -0.566   0.055  -2.399  0.00  0.00    -0.153 OA
BRANCH   3   6
ATOM      6  C   LIG    1        1.682  -1.060  -1.906  0.00  0.00    +0.106 A 
ATOM      7  C   LIG    1        2.361  -2.191  -1.497  0.00  0.00    +0.032 A 
ATOM      8  C   LIG    1        3.682  -2.382  -1.868  0.00  0.00    -0.042 A 
ATOM      9  C   LIG    1        4.632  -3.519  -1.560  0.00  0.00    +0.036 C 
ATOM     10  C   LIG    1        6.040  -2.959  -1.853  0.00  0.00    +0.009 C 
ATOM     11  C   LIG    1        5.750  -1.866  -2.904  0.00  0.00    +0.036 C 
ATOM     12  C   LIG    1        4.324  -1.432  -2.640  0.00  0.00    -0.044 A 
ATOM     13  C   LIG    1        3.643  -0.296  -3.044  0.00  0.00    +0.006 A 
ATOM     14  C   LIG    1        2.324  -0.110  -2.678  0.00  0.00    +0.029 A 
ENDBRANCH   3   6
ENDBRANCH   2   3
BRANCH   2  15
ATOM     15  C   LIG    1        0.024  -0.743   1.267  0.00  0.00    +0.144 C 
BRANCH  15  16
ATOM     16  C   LIG    1       -1.384  -0.909   1.776  0.00  0.00    -0.032 A 
ATOM     17  C   LIG    1       -1.934   0.051   2.607  0.00  0.00    +0.006 A 
ATOM     18  C   LIG    1       -3.223  -0.094   3.076  0.00  0.00    +0.013 A 
ATOM     19  C   LIG    1       -3.973  -1.213   2.712  0.00  0.00    +0.037 A 
ATOM     20  C   LIG    1       -3.413  -2.179   1.873  0.00  0.00    +0.013 A 
ATOM     21  C   LIG    1       -2.124  -2.018   1.407  0.00  0.00    +0.006 A 
BRANCH  19  22
ATOM     22  C   LIG    1       -5.355  -1.376   3.211  0.00  0.00    +0.242 C 
ATOM     23  O   LIG    1       -5.841  -0.533   3.940  0.00  0.00    -0.270 OA
ATOM     24  N   LIG    1       -6.077  -2.458   2.857  0.00  0.00    -0.325 N 
ATOM     25  H   LIG    1       -6.984  -2.564   3.184  0.00  0.00    +0.145 HD
ATOM     26  H   LIG    1       -5.689  -3.130   2.275  0.00  0.00    +0.145 HD
ENDBRANCH  19  22
ENDBRANCH  15  16
ENDBRANCH   2  15
TORSDOF 5
