REMARK  Name = ZINC000000239919
REMARK                            x       y       z     vdW  Elec       q    Type
REMARK                         _______ _______ _______ _____ _____    ______ ____
ROOT
ATOM      1  C   LIG    1       -1.307  -2.113  -0.430  0.00  0.00    +0.078 C 
ATOM      2  C   LIG    1       -2.453  -2.742  -0.088  0.00  0.00    +0.021 C 
ATOM      3  N   LIG    1       -2.445  -4.042   0.329  0.00  0.00    -0.289 N 
ATOM      4  C   LIG    1       -3.724  -4.661   0.683  0.00  0.00    +0.137 C 
ATOM      5  C   LIG    1       -1.334  -4.782   0.431  0.00  0.00    +0.137 C 
ATOM      6  S   LIG    1       -1.466  -6.402   0.968  0.00  0.00    -0.018 S 
ATOM      7  N   LIG    1       -0.116  -4.294   0.126  0.00  0.00    -0.315 N 
ATOM      8  H   LIG    1        0.676  -4.848   0.208  0.00  0.00    +0.149 HD
ATOM      9  C   LIG    1       -3.760  -1.998  -0.169  0.00  0.00    +0.061 C 
ATOM     10  C   LIG    1       -0.016  -2.900  -0.340  0.00  0.00    +0.141 C 
ENDROOT
BRANCH  10  11
ATOM     11  C   LIG    1        0.903  -2.161   0.598  0.00  0.00    -0.019 A 
ATOM     12  C   LIG    1        0.841  -2.404   1.957  0.00  0.00    +0.009 A 
ATOM     13  C   LIG    1        1.682  -1.728   2.822  0.00  0.00    +0.050 A 
ATOM     14  C   LIG    1        2.589  -0.805   2.327  0.00  0.00    +0.162 A 
ATOM     15  C   LIG    1        2.652  -0.562   0.958  0.00  0.00    +0.162 A 
ATOM     16  C   LIG    1        1.810  -1.246   0.096  0.00  0.00    +0.055 A 
BRANCH  14  17
ATOM     17  O   LIG    1        3.417  -0.140   3.176  0.00  0.00    -0.491 OA
ATOM     18  C   LIG    1        3.297  -0.441   4.568  0.00  0.00    +0.277 C 
ENDBRANCH  14  17
BRANCH  15  19
ATOM     19  O   LIG    1        3.542   0.342   0.467  0.00  0.00    -0.491 OA
ATOM     20  C   LIG    1        3.550   0.541  -0.948  0.00  0.00    +0.277 C 
ENDBRANCH  15  19
ENDBRANCH  10  11
BRANCH   1  21
ATOM     21  C   LIG    1       -1.314  -0.766  -0.863  0.00  0.00    +0.339 C 
ATOM     22  O   LIG    1       -2.351  -0.130  -0.854  0.00  0.00    -0.245 OA
BRANCH  21  23
ATOM     23  O   LIG    1       -0.170  -0.188  -1.284  0.00  0.00    -0.465 OA
ATOM     24  C   LIG    1       -0.250   1.175  -1.707  0.00  0.00    +0.280 C 
ENDBRANCH  21  23
ENDBRANCH   1  21
TORSDOF 5
