REMARK  Name = ZINC000222089109
REMARK                            x       y       z     vdW  Elec       q    Type
REMARK                         _______ _______ _______ _____ _____    ______ ____
ROOT
ATOM      1  N   LIG    1       -1.012  -4.186   0.552  0.00  0.00    -0.296 N 
ATOM      2  C   LIG    1       -1.982  -4.855   1.206  0.00  0.00    +0.303 C 
ATOM      3  O   LIG    1       -2.881  -4.243   1.751  0.00  0.00    -0.253 OA
ATOM      4  N   LIG    1       -1.957  -6.202   1.256  0.00  0.00    -0.283 N 
ATOM      5  C   LIG    1       -3.066  -6.949   1.866  0.00  0.00    +0.128 C 
ATOM      6  C   LIG    1       -2.505  -7.861   2.958  0.00  0.00    +0.127 C 
ATOM      7  N   LIG    1       -1.365  -8.608   2.408  0.00  0.00    -0.295 N 
ATOM      8  C   LIG    1       -1.340  -9.955   2.459  0.00  0.00    +0.247 C 
ATOM      9  O   LIG    1       -2.306 -10.566   2.870  0.00  0.00    -0.270 OA
ATOM     10  C   LIG    1       -0.254  -7.861   1.802  0.00  0.00    +0.127 C 
ATOM     11  C   LIG    1       -0.818  -6.949   0.705  0.00  0.00    +0.128 C 
ATOM     12  H   LIG    1       -0.257  -4.669   0.179  0.00  0.00    +0.151 HD
ENDROOT
BRANCH   1  13
ATOM     13  C   LIG    1       -1.097  -2.732   0.404  0.00  0.00    +0.077 C 
ATOM     14  C   LIG    1        0.308  -2.155   0.219  0.00  0.00    +0.006 C 
ATOM     15  C   LIG    1        0.220  -0.635   0.065  0.00  0.00    +0.008 C 
ATOM     16  C   LIG    1       -0.635  -0.296  -1.158  0.00  0.00    -0.014 C 
ATOM     17  C   LIG    1       -2.040  -0.873  -0.974  0.00  0.00    +0.005 C 
ATOM     18  C   LIG    1       -0.724   1.224  -1.313  0.00  0.00    +0.007 C 
ATOM     19  C   LIG    1        0.947  -2.759  -1.033  0.00  0.00    +0.009 C 
ATOM     20  C   LIG    1       -1.952  -2.392  -0.819  0.00  0.00    +0.023 C 
ENDBRANCH   1  13
BRANCH   8  21
ATOM     21  C   LIG    1       -0.133 -10.690   2.013  0.00  0.00    +0.040 A 
ATOM     22  C   LIG    1        1.144 -10.147   2.185  0.00  0.00    +0.033 A 
ATOM     23  C   LIG    1        2.241 -10.867   1.755  0.00  0.00    +0.111 A 
ATOM     24  N   LIG    1        2.097 -12.048   1.190  0.00  0.00    -0.263 NA
ATOM     25  C   LIG    1        0.912 -12.597   1.008  0.00  0.00    +0.111 A 
ATOM     26  C   LIG    1       -0.239 -11.949   1.414  0.00  0.00    +0.033 A 
ENDBRANCH   8  21
TORSDOF 2
