REMARK  Name = ZINC000042652006
REMARK                            x       y       z     vdW  Elec       q    Type
REMARK                         _______ _______ _______ _____ _____    ______ ____
ROOT
ATOM      1  N   LIG    1        3.301  -2.776  -4.010  0.00  0.00    -0.289 NA
ATOM      2  C   LIG    1        2.541  -3.768  -3.236  0.00  0.00    +0.100 C 
ATOM      3  C   LIG    1        2.289  -5.004  -4.103  0.00  0.00    +0.100 C 
ATOM      4  N   LIG    1        3.576  -5.559  -4.545  0.00  0.00    -0.297 NA
ATOM      5  C   LIG    1        4.336  -4.567  -5.319  0.00  0.00    +0.100 C 
ATOM      6  C   LIG    1        4.588  -3.332  -4.452  0.00  0.00    +0.100 C 
ENDROOT
BRANCH   1   7
ATOM      7  C   LIG    1        3.498  -1.543  -3.236  0.00  0.00    +0.143 C 
ATOM      8  C   LIG    1        3.976  -0.428  -4.168  0.00  0.00    +0.034 C 
BRANCH   7   9
ATOM      9  C   LIG    1        2.195  -1.139  -2.596  0.00  0.00    +0.244 A 
ATOM     10  N   LIG    1        2.024  -0.737  -1.360  0.00  0.00    -0.195 NA
ATOM     11  C   LIG    1        0.707  -0.490  -1.238  0.00  0.00    +0.172 A 
ATOM     12  N   LIG    1        0.156  -0.742  -2.387  0.00  0.00    -0.061 NA
ATOM     13  O   LIG    1        0.994  -1.116  -3.181  0.00  0.00    -0.336 OA
BRANCH  11  14
ATOM     14  C   LIG    1        0.002  -0.004   0.002  0.00  0.00    +0.076 C 
ATOM     15  C   LIG    1       -0.019   1.526   0.010  0.00  0.00    +0.012 C 
ENDBRANCH  11  14
ENDBRANCH   7   9
ENDBRANCH   1   7
BRANCH   4  16
ATOM     16  C   LIG    1        3.379  -6.792  -5.319  0.00  0.00    +0.125 C 
BRANCH  16  17
ATOM     17  C   LIG    1        4.731  -7.472  -5.548  0.00  0.00    +0.244 C 
BRANCH  17  18
ATOM     18  O   LIG    1        5.270  -7.894  -4.293  0.00  0.00    -0.491 OA
BRANCH  18  19
ATOM     19  C   LIG    1        6.475  -8.521  -4.319  0.00  0.00    +0.121 A 
ATOM     20  C   LIG    1        7.057  -8.958  -3.138  0.00  0.00    +0.045 A 
ATOM     21  C   LIG    1        8.280  -9.599  -3.168  0.00  0.00    +0.004 A 
ATOM     22  C   LIG    1        8.930  -9.796  -4.372  0.00  0.00    +0.000 A 
ATOM     23  C   LIG    1        8.355  -9.356  -5.550  0.00  0.00    +0.004 A 
ATOM     24  C   LIG    1        7.129  -8.720  -5.527  0.00  0.00    +0.045 A 
ENDBRANCH  18  19
ENDBRANCH  17  18
ENDBRANCH  16  17
ENDBRANCH   4  16
TORSDOF 7
