REMARK  Name = ZINC000000239921
REMARK                            x       y       z     vdW  Elec       q    Type
REMARK                         _______ _______ _______ _____ _____    ______ ____
ROOT
ATOM      1  C   LIG    1       -1.358  -2.100  -0.371  0.00  0.00    +0.078 C 
ATOM      2  C   LIG    1       -2.481  -2.793  -0.081  0.00  0.00    +0.021 C 
ATOM      3  N   LIG    1       -2.424  -4.109   0.277  0.00  0.00    -0.289 N 
ATOM      4  C   LIG    1       -3.681  -4.799   0.577  0.00  0.00    +0.137 C 
ATOM      5  C   LIG    1       -1.284  -4.805   0.368  0.00  0.00    +0.137 C 
ATOM      6  S   LIG    1       -1.354  -6.453   0.828  0.00  0.00    -0.018 S 
ATOM      7  N   LIG    1       -0.082  -4.251   0.110  0.00  0.00    -0.315 N 
ATOM      8  H   LIG    1        0.732  -4.774   0.182  0.00  0.00    +0.149 HD
ATOM      9  C   LIG    1       -3.818  -2.103  -0.154  0.00  0.00    +0.061 C 
ATOM     10  C   LIG    1       -0.035  -2.835  -0.291  0.00  0.00    +0.141 C 
ENDROOT
BRANCH  10  11
ATOM     11  C   LIG    1        0.632  -2.755  -1.640  0.00  0.00    -0.019 A 
ATOM     12  C   LIG    1        1.522  -1.732  -1.910  0.00  0.00    +0.055 A 
ATOM     13  C   LIG    1        2.141  -1.661  -3.147  0.00  0.00    +0.162 A 
ATOM     14  C   LIG    1        1.856  -2.614  -4.120  0.00  0.00    +0.162 A 
ATOM     15  C   LIG    1        0.960  -3.634  -3.845  0.00  0.00    +0.050 A 
ATOM     16  C   LIG    1        0.349  -3.702  -2.606  0.00  0.00    +0.009 A 
BRANCH  13  17
ATOM     17  O   LIG    1        3.020  -0.658  -3.413  0.00  0.00    -0.491 OA
ATOM     18  C   LIG    1        3.264   0.285  -2.367  0.00  0.00    +0.277 C 
ENDBRANCH  13  17
BRANCH  14  19
ATOM     19  O   LIG    1        2.457  -2.545  -5.338  0.00  0.00    -0.491 OA
ATOM     20  C   LIG    1        2.117  -3.558  -6.288  0.00  0.00    +0.277 C 
ENDBRANCH  14  19
ENDBRANCH  10  11
BRANCH   1  21
ATOM     21  C   LIG    1       -1.416  -0.737  -0.742  0.00  0.00    +0.339 C 
ATOM     22  O   LIG    1       -2.494  -0.199  -0.916  0.00  0.00    -0.245 OA
BRANCH  21  23
ATOM     23  O   LIG    1       -0.276  -0.032  -0.903  0.00  0.00    -0.465 OA
ATOM     24  C   LIG    1       -0.409   1.340  -1.279  0.00  0.00    +0.280 C 
ENDBRANCH  21  23
ENDBRANCH   1  21
TORSDOF 5
