REMARK  Name = ZINC000082098001
REMARK                            x       y       z     vdW  Elec       q    Type
REMARK                         _______ _______ _______ _____ _____    ______ ____
ROOT
ATOM      1  C   LIG    1        2.511  -3.454  -4.984  0.00  0.00    +0.176 C 
ATOM      2  C   LIG    1        1.321  -4.321  -5.401  0.00  0.00    +0.063 C 
ATOM      3  C   LIG    1        1.584  -5.773  -4.989  0.00  0.00    +0.111 C 
ATOM      4  N   LIG    1        2.870  -6.200  -5.557  0.00  0.00    -0.300 N 
ATOM      5  C   LIG    1        4.064  -5.386  -5.293  0.00  0.00    +0.111 C 
ATOM      6  C   LIG    1        2.953  -7.317  -6.306  0.00  0.00    +0.234 C 
ATOM      7  O   LIG    1        1.945  -7.915  -6.617  0.00  0.00    -0.274 OA
ATOM      8  C   LIG    1        3.773  -3.938  -5.700  0.00  0.00    +0.063 C 
ENDROOT
BRANCH   6   9
ATOM      9  C   LIG    1        4.299  -7.824  -6.758  0.00  0.00    +0.154 C 
ATOM     10  N   LIG    1        4.379  -9.254  -6.480  0.00  0.00    -0.285 NA
ATOM     11  C   LIG    1        3.215  -9.706  -5.707  0.00  0.00    +0.106 C 
ATOM     12  C   LIG    1        4.595 -10.112  -7.663  0.00  0.00    +0.154 C 
ATOM     13  S   LIG    1        5.407  -8.964  -8.850  0.00  0.00    -0.143 S 
ATOM     14  C   LIG    1        4.479  -7.488  -8.255  0.00  0.00    +0.098 C 
ENDBRANCH   6   9
BRANCH   1  15
ATOM     15  O   LIG    1        2.255  -2.093  -5.337  0.00  0.00    -0.489 OA
BRANCH  15  16
ATOM     16  C   LIG    1        1.525  -1.354  -4.460  0.00  0.00    +0.121 A 
ATOM     17  C   LIG    1        0.955  -1.960  -3.349  0.00  0.00    +0.049 A 
ATOM     18  C   LIG    1        0.216  -1.208  -2.456  0.00  0.00    +0.049 A 
ATOM     19  C   LIG    1        0.037   0.150  -2.674  0.00  0.00    +0.120 A 
ATOM     20  C   LIG    1        0.608   0.755  -3.784  0.00  0.00    +0.049 A 
ATOM     21  C   LIG    1        1.350   0.005  -4.675  0.00  0.00    +0.049 A 
BRANCH  19  22
ATOM     22  O   LIG    1       -0.694   0.888  -1.797  0.00  0.00    -0.495 OA
ATOM     23  C   LIG    1       -0.837   2.281  -2.083  0.00  0.00    +0.277 C 
ENDBRANCH  19  22
ENDBRANCH  15  16
ENDBRANCH   1  15
TORSDOF 4
