REMARK  Name = ZINC000000238048
REMARK                            x       y       z     vdW  Elec       q    Type
REMARK                         _______ _______ _______ _____ _____    ______ ____
ROOT
ATOM      1  C   LIG    1        1.532  -2.285  -2.665  0.00  0.00    +0.230 C 
ENDROOT
BRANCH   1   2
ATOM      2  N   LIG    1        0.545  -2.793  -3.621  0.00  0.00    -0.276 N 
ATOM      3  C   LIG    1       -0.453  -3.593  -3.199  0.00  0.00    +0.203 A 
ATOM      4  N   LIG    1       -1.348  -4.062  -4.026  0.00  0.00    -0.245 NA
ATOM      5  C   LIG    1       -1.315  -3.770  -5.329  0.00  0.00    +0.118 A 
ATOM      6  C   LIG    1       -0.332  -2.966  -5.820  0.00  0.00    +0.090 A 
ATOM      7  C   LIG    1        0.631  -2.455  -4.925  0.00  0.00    +0.255 A 
ATOM      8  O   LIG    1        1.529  -1.731  -5.323  0.00  0.00    -0.268 OA
ENDBRANCH   1   2
BRANCH   1   9
ATOM      9  N   LIG    1        0.847  -1.812  -1.460  0.00  0.00    -0.291 N 
ATOM     10  H   LIG    1        0.493  -2.451  -0.821  0.00  0.00    +0.151 HD
ATOM     11  C   LIG    1        0.707  -0.490  -1.238  0.00  0.00    +0.220 C 
ATOM     12  O   LIG    1        1.150   0.308  -2.036  0.00  0.00    -0.275 OA
BRANCH  11  13
ATOM     13  C   LIG    1        0.002  -0.004   0.002  0.00  0.00    +0.039 C 
ATOM     14  C   LIG    1        0.742  -0.511   1.242  0.00  0.00    +0.020 C 
ATOM     15  C   LIG    1       -1.433  -0.534   0.013  0.00  0.00    +0.020 C 
ATOM     16  C   LIG    1       -0.019   1.526   0.010  0.00  0.00    +0.020 C 
ENDBRANCH  11  13
ENDBRANCH   1   9
BRANCH   1  17
ATOM     17  C   LIG    1        2.505  -3.405  -2.292  0.00  0.00    +0.227 C 
ATOM     18 CL   LIG    1        3.720  -2.780  -1.116  0.00  0.00    -0.079 Cl
ATOM     19 CL   LIG    1        1.592  -4.770  -1.546  0.00  0.00    -0.079 Cl
ATOM     20 CL   LIG    1        3.349  -3.987  -3.776  0.00  0.00    -0.079 Cl
ENDBRANCH   1  17
TORSDOF 4
