REMARK  Name = ZINC000222223720
REMARK                            x       y       z     vdW  Elec       q    Type
REMARK                         _______ _______ _______ _____ _____    ______ ____
ROOT
ATOM      1  N   LIG    1        0.052  -2.797   2.393  0.00  0.00    -0.270 N 
ATOM      2  C   LIG    1        0.147  -2.227   3.606  0.00  0.00    +0.222 C 
ATOM      3  C   LIG    1        0.141  -3.289   4.683  0.00  0.00    +0.120 C 
ATOM      4  C   LIG    1        0.457  -4.598   3.923  0.00  0.00    +0.100 C 
ATOM      5  O   LIG    1        0.221  -1.033   3.809  0.00  0.00    -0.275 OA
ATOM      6  C   LIG    1       -0.028  -4.259   2.496  0.00  0.00    +0.136 C 
ENDROOT
BRANCH   1   7
ATOM      7  C   LIG    1        0.036  -2.089   1.186  0.00  0.00    +0.037 A 
ATOM      8  C   LIG    1        0.003  -0.700   1.195  0.00  0.00    +0.023 A 
ATOM      9  C   LIG    1       -0.013  -0.004   0.002  0.00  0.00    +0.002 A 
ATOM     10  C   LIG    1        0.004  -0.688  -1.200  0.00  0.00    +0.003 A 
ATOM     11  C   LIG    1        0.037  -2.070  -1.212  0.00  0.00    -0.049 A 
ATOM     12  C   LIG    1        0.056  -2.811  -2.523  0.00  0.00    +0.044 C 
ATOM     13  C   LIG    1        0.048  -2.773  -0.022  0.00  0.00    +0.027 A 
ENDBRANCH   1   7
BRANCH   4  14
ATOM     14  N   LIG    1        1.894  -4.879   3.936  0.00  0.00    -0.305 N 
ATOM     15  C   LIG    1        2.420  -5.657   4.903  0.00  0.00    +0.264 C 
ATOM     16  O   LIG    1        1.702  -6.126   5.764  0.00  0.00    -0.268 OA
ATOM     17  H   LIG    1        2.468  -4.505   3.249  0.00  0.00    +0.149 HD
BRANCH  15  18
ATOM     18  C   LIG    1        3.870  -5.941   4.916  0.00  0.00    +0.147 A 
ATOM     19  C   LIG    1        4.564  -6.734   5.859  0.00  0.00    +0.054 A 
ATOM     20  C   LIG    1        5.860  -6.709   5.469  0.00  0.00    +0.115 A 
ATOM     21  N   LIG    1        5.930  -5.938   4.363  0.00  0.00    -0.211 N 
ATOM     22  N   LIG    1        4.763  -5.498   4.054  0.00  0.00    -0.162 NA
BRANCH  21  23
ATOM     23  C   LIG    1        7.160  -5.644   3.622  0.00  0.00    +0.464 C 
ATOM     24  F   LIG    1        8.248  -5.655   4.501  0.00  0.00    -0.183 F 
ATOM     25  F   LIG    1        7.055  -4.383   3.026  0.00  0.00    -0.183 F 
ENDBRANCH  21  23
ENDBRANCH  15  18
ENDBRANCH   4  14
TORSDOF 4
