REMARK  Name = ZINC000095993656
REMARK                            x       y       z     vdW  Elec       q    Type
REMARK                         _______ _______ _______ _____ _____    ______ ____
ROOT
ATOM      1  N   LIG    1        4.782   0.114  -2.265  0.00  0.00    -0.310 N 
ATOM      2  H   LIG    1        4.939   0.791  -1.589  0.00  0.00    +0.149 HD
ATOM      3  C   LIG    1        5.743  -0.175  -3.166  0.00  0.00    +0.248 C 
ATOM      4  O   LIG    1        5.546  -1.024  -4.013  0.00  0.00    -0.270 OA
ENDROOT
BRANCH   3   5
ATOM      5  C   LIG    1        7.034   0.540  -3.123  0.00  0.00    +0.081 A 
ATOM      6  C   LIG    1        7.337   1.417  -2.077  0.00  0.00    +0.127 A 
ATOM      7  N   LIG    1        8.505   2.036  -2.077  0.00  0.00    -0.243 NA
ATOM      8  C   LIG    1        9.382   1.840  -3.043  0.00  0.00    +0.221 A 
ATOM      9  N   LIG    1        9.146   1.026  -4.051  0.00  0.00    -0.235 NA
ATOM     10  C   LIG    1        8.001   0.355  -4.133  0.00  0.00    +0.086 A 
BRANCH  10  11
ATOM     11  C   LIG    1        7.741  -0.559  -5.268  0.00  0.00    +0.001 A 
ATOM     12  C   LIG    1        8.659  -1.560  -5.587  0.00  0.00    +0.010 A 
ATOM     13  C   LIG    1        8.409  -2.412  -6.643  0.00  0.00    +0.001 A 
ATOM     14  C   LIG    1        7.255  -2.269  -7.392  0.00  0.00    +0.000 A 
ATOM     15  C   LIG    1        6.342  -1.275  -7.084  0.00  0.00    +0.001 A 
ATOM     16  C   LIG    1        6.579  -0.421  -6.027  0.00  0.00    +0.010 A 
ENDBRANCH  10  11
ENDBRANCH   3   5
BRANCH   1  17
ATOM     17  C   LIG    1        3.502  -0.596  -2.308  0.00  0.00    +0.117 C 
BRANCH  17  18
ATOM     18  C   LIG    1        2.597  -0.083  -1.185  0.00  0.00    +0.123 C 
BRANCH  18  19
ATOM     19  S   LIG    1        1.011  -0.962  -1.238  0.00  0.00    +0.029 S 
ATOM     20  O   LIG    1        1.226  -2.343  -0.984  0.00  0.00    -0.257 OA
BRANCH  19  21
ATOM     21  C   LIG    1        0.092  -0.228   0.144  0.00  0.00    +0.038 C 
ATOM     22  C   LIG    1        0.854  -0.469   1.448  0.00  0.00    +0.024 C 
ATOM     23  C   LIG    1       -1.292  -0.874   0.235  0.00  0.00    +0.024 C 
ATOM     24  C   LIG    1       -0.061   1.276  -0.087  0.00  0.00    +0.024 C 
ENDBRANCH  19  21
ENDBRANCH  18  19
ENDBRANCH  17  18
ENDBRANCH   1  17
TORSDOF 6
