REMARK  Name = ZINC000025724704
REMARK                            x       y       z     vdW  Elec       q    Type
REMARK                         _______ _______ _______ _____ _____    ______ ____
ROOT
ATOM      1  N   LIG    1       -0.586  -2.529   1.205  0.00  0.00    -0.287 N 
ATOM      2  C   LIG    1        0.753  -2.636   1.310  0.00  0.00    +0.263 C 
ATOM      3  O   LIG    1        1.465  -2.300   0.383  0.00  0.00    -0.268 OA
ENDROOT
BRANCH   2   4
ATOM      4  C   LIG    1        1.355  -3.161   2.550  0.00  0.00    +0.105 A 
ATOM      5  C   LIG    1        1.576  -2.312   3.584  0.00  0.00    +0.039 A 
ATOM      6  C   LIG    1        2.172  -2.823   4.818  0.00  0.00    -0.011 A 
ATOM      7  C   LIG    1        2.420  -1.994   5.913  0.00  0.00    +0.009 A 
ATOM      8  C   LIG    1        2.984  -2.525   7.053  0.00  0.00    +0.001 A 
ATOM      9  C   LIG    1        3.307  -3.873   7.123  0.00  0.00    +0.001 A 
ATOM     10  C   LIG    1        3.071  -4.710   6.053  0.00  0.00    +0.014 A 
ATOM     11  C   LIG    1        2.501  -4.197   4.890  0.00  0.00    +0.046 A 
ATOM     12  C   LIG    1        2.229  -5.046   3.722  0.00  0.00    +0.257 A 
ATOM     13  O   LIG    1        2.500  -6.232   3.748  0.00  0.00    -0.267 OA
ATOM     14  N   LIG    1        1.671  -4.501   2.623  0.00  0.00    -0.318 N 
ATOM     15  H   LIG    1        1.494  -5.067   1.856  0.00  0.00    +0.169 HD
ENDBRANCH   2   4
BRANCH   1  16
ATOM     16  C   LIG    1       -1.438  -2.834   2.357  0.00  0.00    +0.182 C 
BRANCH  16  17
ATOM     17  C   LIG    1       -1.925  -4.257   2.259  0.00  0.00    +0.122 A 
ATOM     18  C   LIG    1       -1.307  -5.336   2.770  0.00  0.00    +0.046 A 
ATOM     19  C   LIG    1       -2.106  -6.457   2.446  0.00  0.00    +0.041 A 
ATOM     20  C   LIG    1       -3.164  -5.995   1.756  0.00  0.00    +0.195 A 
ATOM     21  O   LIG    1       -3.052  -4.661   1.651  0.00  0.00    -0.466 OA
ENDBRANCH  16  17
ENDBRANCH   1  16
BRANCH   1  22
ATOM     22  C   LIG    1       -1.190  -2.107  -0.062  0.00  0.00    +0.136 C 
BRANCH  22  23
ATOM     23  C   LIG    1       -1.322  -0.583  -0.081  0.00  0.00    +0.178 C 
BRANCH  23  24
ATOM     24  O   LIG    1       -0.022   0.009  -0.066  0.00  0.00    -0.381 OA
ATOM     25  C   LIG    1       -0.033   1.438  -0.082  0.00  0.00    +0.194 C 
ENDBRANCH  23  24
ENDBRANCH  22  23
ENDBRANCH   1  22
TORSDOF 6
