REMARK  Name = ZINC000012971522
REMARK                            x       y       z     vdW  Elec       q    Type
REMARK                         _______ _______ _______ _____ _____    ______ ____
ROOT
ATOM      1  S   LIG    1       -4.183  -4.965  -0.023  0.00  0.00    +0.059 S 
ATOM      2  O   LIG    1       -5.118  -3.997  -0.480  0.00  0.00    -0.153 OA
ATOM      3  O   LIG    1       -4.053  -6.254  -0.605  0.00  0.00    -0.153 OA
ENDROOT
BRANCH   1   4
ATOM      4  C   LIG    1       -2.595  -4.209  -0.126  0.00  0.00    +0.106 A 
ATOM      5  C   LIG    1       -2.483  -2.835  -0.100  0.00  0.00    +0.043 A 
ATOM      6  C   LIG    1       -1.224  -2.238  -0.188  0.00  0.00    +0.061 A 
ATOM      7  C   LIG    1       -0.085  -3.038  -0.288  0.00  0.00    +0.015 A 
ATOM      8  C   LIG    1       -0.210  -4.412  -0.307  0.00  0.00    +0.003 A 
ATOM      9  C   LIG    1       -1.461  -4.997  -0.226  0.00  0.00    +0.028 A 
BRANCH   6  10
ATOM     10  C   LIG    1       -1.097  -0.766  -0.167  0.00  0.00    +0.339 C 
ATOM     11  O   LIG    1       -2.090  -0.073  -0.074  0.00  0.00    -0.245 OA
BRANCH  10  12
ATOM     12  O   LIG    1        0.119  -0.194  -0.252  0.00  0.00    -0.464 OA
ATOM     13  C   LIG    1        0.168   1.257  -0.226  0.00  0.00    +0.280 C 
ENDBRANCH  10  12
ENDBRANCH   6  10
ENDBRANCH   1   4
BRANCH   1  14
ATOM     14  N   LIG    1       -4.508  -5.207   1.583  0.00  0.00    -0.182 NA
ATOM     15  H   LIG    1       -4.587  -6.109   1.931  0.00  0.00    +0.149 HD
BRANCH  14  16
ATOM     16  C   LIG    1       -4.677  -4.059   2.477  0.00  0.00    +0.110 C 
ATOM     17  C   LIG    1       -4.104  -4.384   3.832  0.00  0.00    +0.012 A 
ATOM     18  C   LIG    1       -4.706  -4.095   5.005  0.00  0.00    +0.110 A 
ATOM     19  O   LIG    1       -3.919  -4.527   5.998  0.00  0.00    -0.467 OA
ATOM     20  C   LIG    1       -2.813  -5.091   5.479  0.00  0.00    +0.195 A 
ATOM     21  C   LIG    1       -6.041  -3.400   5.119  0.00  0.00    +0.075 C 
ATOM     22  C   LIG    1       -6.356  -2.733   3.775  0.00  0.00    +0.010 C 
ATOM     23  C   LIG    1       -2.889  -5.022   4.135  0.00  0.00    +0.046 A 
ATOM     24  C   LIG    1       -6.170  -3.748   2.643  0.00  0.00    +0.025 C 
ENDBRANCH  14  16
ENDBRANCH   1  14
TORSDOF 5
