REMARK  Name = ZINC000025817854
REMARK                            x       y       z     vdW  Elec       q    Type
REMARK                         _______ _______ _______ _____ _____    ______ ____
ROOT
ATOM      1  C   LIG    1       -1.396   0.485   2.823  0.00  0.00    +0.221 C 
ATOM      2  N   LIG    1       -1.635   1.145   3.973  0.00  0.00    -0.289 N 
ATOM      3  O   LIG    1       -0.257   0.215   2.504  0.00  0.00    -0.275 OA
ENDROOT
BRANCH   2   4
ATOM      4  C   LIG    1       -0.517   1.635   4.783  0.00  0.00    +0.099 C 
ATOM      5  C   LIG    1        0.380   0.449   5.223  0.00  0.00    +0.188 C 
ATOM      6  S   LIG    1        1.942   1.285   5.694  0.00  0.00    -0.029 S 
ATOM      7  O   LIG    1        1.900   1.623   7.074  0.00  0.00    -0.174 OA
ATOM      8  O   LIG    1        3.044   0.551   5.178  0.00  0.00    -0.174 OA
ATOM      9  C   LIG    1        1.699   2.796   4.693  0.00  0.00    +0.168 C 
ATOM     10  C   LIG    1        0.370   2.572   3.944  0.00  0.00    +0.047 C 
ENDBRANCH   2   4
BRANCH   2  11
ATOM     11  C   LIG    1       -3.014   1.372   4.415  0.00  0.00    +0.182 C 
BRANCH  11  12
ATOM     12  C   LIG    1       -3.461   0.220   5.277  0.00  0.00    +0.122 A 
ATOM     13  C   LIG    1       -3.331   0.140   6.613  0.00  0.00    +0.046 A 
ATOM     14  C   LIG    1       -3.881  -1.102   7.005  0.00  0.00    +0.041 A 
ATOM     15  C   LIG    1       -4.315  -1.707   5.884  0.00  0.00    +0.195 A 
ATOM     16  O   LIG    1       -4.064  -0.899   4.841  0.00  0.00    -0.466 OA
ENDBRANCH  11  12
ENDBRANCH   2  11
BRANCH   1  17
ATOM     17  C   LIG    1       -2.543   0.082   1.933  0.00  0.00    +0.131 C 
BRANCH  17  18
ATOM     18  C   LIG    1       -2.017  -0.704   0.759  0.00  0.00    -0.036 A 
ATOM     19  C   LIG    1       -1.796  -2.063   0.881  0.00  0.00    -0.047 A 
ATOM     20  C   LIG    1       -2.087  -2.760   2.185  0.00  0.00    +0.044 C 
ATOM     21  C   LIG    1       -1.315  -2.784  -0.195  0.00  0.00    +0.003 A 
ATOM     22  C   LIG    1       -1.048  -2.145  -1.392  0.00  0.00    +0.000 A 
ATOM     23  C   LIG    1       -1.263  -0.785  -1.512  0.00  0.00    +0.000 A 
ATOM     24  C   LIG    1       -1.746  -0.064  -0.435  0.00  0.00    +0.004 A 
ENDBRANCH  17  18
ENDBRANCH   1  17
TORSDOF 5
