REMARK  Name = ZINC000058191572
REMARK                            x       y       z     vdW  Elec       q    Type
REMARK                         _______ _______ _______ _____ _____    ______ ____
ROOT
ATOM      1  C   LIG    1       -6.860  -4.509  -0.359  0.00  0.00    +0.181 C 
ENDROOT
BRANCH   1   2
ATOM      2  N   LIG    1       -6.382  -5.882  -0.145  0.00  0.00    -0.283 NA
ATOM      3  C   LIG    1       -7.500  -6.834  -0.144  0.00  0.00    +0.144 C 
ATOM      4  C   LIG    1       -6.985  -8.227   0.224  0.00  0.00    +0.028 C 
ATOM      5  C   LIG    1       -5.924  -8.659  -0.792  0.00  0.00    +0.003 C 
ATOM      6  C   LIG    1       -4.794  -7.625  -0.809  0.00  0.00    +0.015 C 
ATOM      7  C   LIG    1       -5.373  -6.249  -1.147  0.00  0.00    +0.085 C 
BRANCH   3   8
ATOM      8  C   LIG    1       -8.531  -6.397   0.865  0.00  0.00    +0.233 C 
ATOM      9  O   LIG    1       -8.191  -5.772   1.847  0.00  0.00    -0.274 OA
ATOM     10  N   LIG    1       -9.830  -6.701   0.676  0.00  0.00    -0.300 N 
ATOM     11  C   LIG    1      -10.950  -6.248   1.521  0.00  0.00    +0.108 C 
ATOM     12  C   LIG    1      -12.193  -6.309   0.595  0.00  0.00    +0.020 C 
ATOM     13  C   LIG    1      -11.898  -7.587  -0.234  0.00  0.00    +0.020 C 
ATOM     14  C   LIG    1      -10.365  -7.543  -0.404  0.00  0.00    +0.108 C 
ENDBRANCH   3   8
ENDBRANCH   1   2
BRANCH   1  15
ATOM     15  C   LIG    1       -7.475  -4.399  -1.730  0.00  0.00    +0.231 C 
ATOM     16  N   LIG    1       -7.894  -3.202  -2.186  0.00  0.00    -0.284 N 
ATOM     17  H   LIG    1       -7.738  -2.401  -1.662  0.00  0.00    +0.155 HD
ATOM     18  O   LIG    1       -7.591  -5.387  -2.424  0.00  0.00    -0.274 OA
BRANCH  16  19
ATOM     19  C   LIG    1       -8.557  -3.114  -3.418  0.00  0.00    +0.034 A 
ATOM     20  C   LIG    1       -9.393  -4.143  -3.831  0.00  0.00    +0.027 A 
ATOM     21  C   LIG    1      -10.045  -4.056  -5.045  0.00  0.00    +0.047 A 
ATOM     22  C   LIG    1       -9.866  -2.942  -5.851  0.00  0.00    +0.120 A 
ATOM     23  C   LIG    1       -9.027  -1.916  -5.441  0.00  0.00    +0.047 A 
ATOM     24  C   LIG    1       -8.378  -1.999  -4.225  0.00  0.00    +0.027 A 
BRANCH  22  25
ATOM     25  O   LIG    1      -10.508  -2.857  -7.047  0.00  0.00    -0.495 OA
ATOM     26  C   LIG    1      -11.357  -3.949  -7.406  0.00  0.00    +0.277 C 
ENDBRANCH  22  25
ENDBRANCH  16  19
ENDBRANCH   1  15
TORSDOF 5
