REMARK  Name = ZINC000082139362
REMARK                            x       y       z     vdW  Elec       q    Type
REMARK                         _______ _______ _______ _____ _____    ______ ____
ROOT
ATOM      1  C   LIG    1        0.025  -0.354   2.521  0.00  0.00    +0.072 C 
ATOM      2  C   LIG    1       -1.216  -0.900   3.232  0.00  0.00    +0.014 C 
ATOM      3  C   LIG    1       -1.232  -0.410   4.681  0.00  0.00    +0.020 C 
ATOM      4  C   LIG    1        0.011  -0.934   5.407  0.00  0.00    +0.108 C 
ATOM      5  N   LIG    1        1.205  -0.535   4.649  0.00  0.00    -0.301 N 
ATOM      6  C   LIG    1        2.210   0.131   5.251  0.00  0.00    +0.216 C 
ATOM      7  O   LIG    1        3.190   0.455   4.614  0.00  0.00    -0.276 OA
ATOM      8  C   LIG    1        1.283  -0.877   3.222  0.00  0.00    +0.119 C 
ENDROOT
BRANCH   1   9
ATOM      9  C   LIG    1        0.023  -0.811   1.085  0.00  0.00    +0.114 A 
ATOM     10  N   LIG    1        0.034  -2.052   0.681  0.00  0.00    -0.240 NA
ATOM     11  C   LIG    1        0.029  -2.081  -0.660  0.00  0.00    +0.130 A 
ATOM     12  C   LIG    1        0.009  -0.810  -1.104  0.00  0.00    +0.106 A 
ATOM     13  N   LIG    1        0.002  -0.004   0.002  0.00  0.00    -0.337 N 
ATOM     14  C   LIG    1       -0.018   1.461   0.010  0.00  0.00    +0.150 C 
ENDBRANCH   1   9
BRANCH   6  15
ATOM     15  C   LIG    1        2.116   0.475   6.715  0.00  0.00    +0.102 C 
BRANCH  15  16
ATOM     16  C   LIG    1        3.378   1.225   7.145  0.00  0.00    +0.066 C 
BRANCH  16  17
ATOM     17  C   LIG    1        3.284   1.568   8.609  0.00  0.00    +0.061 A 
ATOM     18  C   LIG    1        4.196   1.248   9.554  0.00  0.00    +0.116 A 
ATOM     19  N   LIG    1        3.735   1.742  10.744  0.00  0.00    -0.306 N 
ATOM     20  C   LIG    1        4.238   1.714  12.012  0.00  0.00    +0.092 A 
ATOM     21  C   LIG    1        3.567   2.291  13.031  0.00  0.00    +0.018 A 
ATOM     22  C   LIG    1        2.337   2.930  12.798  0.00  0.00    +0.005 A 
ATOM     23  C   LIG    1        1.825   2.966  11.539  0.00  0.00    +0.047 A 
ATOM     24  C   LIG    1        2.538   2.359  10.485  0.00  0.00    +0.138 A 
ATOM     25  N   LIG    1        2.289   2.245   9.188  0.00  0.00    -0.233 NA
ENDBRANCH  16  17
ENDBRANCH  15  16
ENDBRANCH   6  15
TORSDOF 4
