REMARK  Name = ZINC000012979875
REMARK                            x       y       z     vdW  Elec       q    Type
REMARK                         _______ _______ _______ _____ _____    ______ ____
ROOT
ATOM      1  C   LIG    1        1.280   1.980   0.001  0.00  0.00    +0.201 C 
ENDROOT
BRANCH   1   2
ATOM      2  N   LIG    1        2.407   1.043  -0.015  0.00  0.00    -0.291 N 
ATOM      3  H   LIG    1        2.242   0.087  -0.019  0.00  0.00    +0.151 HD
ATOM      4  C   LIG    1        3.671   1.510  -0.025  0.00  0.00    +0.300 C 
ATOM      5  O   LIG    1        3.877   2.708  -0.020  0.00  0.00    -0.253 OA
ATOM      6  N   LIG    1        4.707   0.648  -0.039  0.00  0.00    -0.295 N 
ATOM      7  H   LIG    1        4.543  -0.308  -0.043  0.00  0.00    +0.151 HD
BRANCH   6   8
ATOM      8  C   LIG    1        6.082   1.155  -0.050  0.00  0.00    +0.141 C 
BRANCH   8   9
ATOM      9  C   LIG    1        7.045  -0.004  -0.065  0.00  0.00    -0.030 A 
ATOM     10  C   LIG    1        7.493  -0.546   1.125  0.00  0.00    +0.005 A 
ATOM     11  C   LIG    1        8.377  -1.609   1.111  0.00  0.00    +0.000 A 
ATOM     12  C   LIG    1        8.811  -2.131  -0.093  0.00  0.00    +0.000 A 
ATOM     13  C   LIG    1        8.361  -1.590  -1.284  0.00  0.00    +0.000 A 
ATOM     14  C   LIG    1        7.475  -0.529  -1.269  0.00  0.00    +0.005 A 
ENDBRANCH   8   9
ENDBRANCH   6   8
ENDBRANCH   1   2
BRANCH   1  15
ATOM     15  C   LIG    1       -0.014   1.209   0.009  0.00  0.00    +0.231 C 
ATOM     16  N   LIG    1       -1.191   1.867   0.018  0.00  0.00    -0.310 N 
ATOM     17  H   LIG    1       -1.204   2.837   0.023  0.00  0.00    +0.149 HD
ATOM     18  O   LIG    1        0.002  -0.004   0.002  0.00  0.00    -0.274 OA
BRANCH  16  19
ATOM     19  C   LIG    1       -2.449   1.117   0.020  0.00  0.00    +0.141 C 
BRANCH  19  20
ATOM     20  C   LIG    1       -3.608   2.080   0.030  0.00  0.00    -0.012 A 
ATOM     21  C   LIG    1       -4.263   2.361   1.215  0.00  0.00    +0.006 A 
ATOM     22  C   LIG    1       -5.326   3.245   1.225  0.00  0.00    +0.000 A 
ATOM     23  C   LIG    1       -5.734   3.848   0.050  0.00  0.00    +0.001 A 
ATOM     24  C   LIG    1       -5.080   3.569  -1.135  0.00  0.00    +0.020 A 
ATOM     25  C   LIG    1       -4.012   2.689  -1.144  0.00  0.00    +0.046 A 
ATOM     26 CL   LIG    1       -3.190   2.338  -2.632  0.00  0.00    -0.083 Cl
ENDBRANCH  19  20
ENDBRANCH  16  19
ENDBRANCH   1  15
TORSDOF 6
