REMARK  Name = ZINC000222089224
REMARK                            x       y       z     vdW  Elec       q    Type
REMARK                         _______ _______ _______ _____ _____    ______ ____
ROOT
ATOM      1  N   LIG    1       -1.701  -0.464   4.276  0.00  0.00    -0.296 N 
ATOM      2  H   LIG    1       -1.405   0.340   4.730  0.00  0.00    +0.151 HD
ATOM      3  C   LIG    1       -2.841  -1.074   4.659  0.00  0.00    +0.303 C 
ATOM      4  N   LIG    1       -3.517  -0.624   5.735  0.00  0.00    -0.283 N 
ATOM      5  C   LIG    1       -3.090   0.599   6.429  0.00  0.00    +0.128 C 
ATOM      6  C   LIG    1       -4.276   1.570   6.484  0.00  0.00    +0.127 C 
ATOM      7  N   LIG    1       -5.453   0.846   6.984  0.00  0.00    -0.295 N 
ATOM      8  C   LIG    1       -6.129   1.296   8.059  0.00  0.00    +0.247 C 
ATOM      9  O   LIG    1       -7.038   0.637   8.524  0.00  0.00    -0.270 OA
ATOM     10  C   LIG    1       -5.880  -0.377   6.290  0.00  0.00    +0.127 C 
ATOM     11  C   LIG    1       -4.697  -1.345   6.231  0.00  0.00    +0.128 C 
ATOM     12  O   LIG    1       -3.259  -2.029   4.033  0.00  0.00    -0.253 OA
ENDROOT
BRANCH   1  13
ATOM     13  C   LIG    1       -0.909  -1.017   3.175  0.00  0.00    +0.077 C 
ATOM     14  C   LIG    1        0.550  -0.582   3.327  0.00  0.00    +0.006 C 
ATOM     15  C   LIG    1        1.099  -1.096   4.659  0.00  0.00    +0.009 C 
ATOM     16  C   LIG    1        1.377  -1.159   2.177  0.00  0.00    +0.008 C 
ATOM     17  C   LIG    1        0.828  -0.645   0.845  0.00  0.00    -0.014 C 
ATOM     18  C   LIG    1        0.910   0.883   0.815  0.00  0.00    +0.007 C 
ATOM     19  C   LIG    1       -0.631  -1.080   0.693  0.00  0.00    +0.005 C 
ATOM     20  C   LIG    1       -1.458  -0.503   1.843  0.00  0.00    +0.023 C 
ENDBRANCH   1  13
BRANCH   8  21
ATOM     21  C   LIG    1       -5.764   2.593   8.675  0.00  0.00    +0.040 A 
ATOM     22  C   LIG    1       -5.896   2.798  10.052  0.00  0.00    +0.033 A 
ATOM     23  C   LIG    1       -5.539   4.021  10.584  0.00  0.00    +0.111 A 
ATOM     24  N   LIG    1       -5.090   4.990   9.812  0.00  0.00    -0.263 NA
ATOM     25  C   LIG    1       -4.956   4.841   8.509  0.00  0.00    +0.111 A 
ATOM     26  C   LIG    1       -5.284   3.649   7.894  0.00  0.00    +0.033 A 
ENDBRANCH   8  21
TORSDOF 2
