REMARK  Name = ZINC000042324908
REMARK                            x       y       z     vdW  Elec       q    Type
REMARK                         _______ _______ _______ _____ _____    ______ ____
ROOT
ATOM      1  N   LIG    1        2.893   4.404   1.419  0.00  0.00    -0.295 N 
ATOM      2  H   LIG    1        2.394   4.048   2.171  0.00  0.00    +0.151 HD
ATOM      3  C   LIG    1        4.002   5.140   1.634  0.00  0.00    +0.300 C 
ATOM      4  N   LIG    1        4.417   5.380   2.893  0.00  0.00    -0.295 N 
ATOM      5  H   LIG    1        3.918   5.024   3.645  0.00  0.00    +0.151 HD
ATOM      6  O   LIG    1        4.627   5.586   0.692  0.00  0.00    -0.253 OA
ENDROOT
BRANCH   4   7
ATOM      7  C   LIG    1        5.623   6.179   3.127  0.00  0.00    +0.144 C 
BRANCH   7   8
ATOM      8  C   LIG    1        5.867   6.299   4.609  0.00  0.00    +0.013 A 
ATOM      9  C   LIG    1        6.325   5.208   5.337  0.00  0.00    +0.143 A 
ATOM     10  N   LIG    1        6.545   5.310   6.638  0.00  0.00    -0.237 NA
ATOM     11  C   LIG    1        6.331   6.437   7.289  0.00  0.00    +0.113 A 
ATOM     12  C   LIG    1        5.870   7.559   6.630  0.00  0.00    +0.020 A 
ATOM     13  C   LIG    1        5.632   7.495   5.264  0.00  0.00    +0.010 A 
BRANCH   9  14
ATOM     14  N   LIG    1        6.567   3.994   4.687  0.00  0.00    -0.290 N 
ATOM     15  C   LIG    1        6.177   2.761   5.107  0.00  0.00    +0.205 A 
ATOM     16  N   LIG    1        6.584   1.878   4.236  0.00  0.00    -0.244 NA
ATOM     17  C   LIG    1        7.245   2.500   3.248  0.00  0.00    +0.130 A 
ATOM     18  C   LIG    1        7.246   3.820   3.508  0.00  0.00    +0.114 A 
ENDBRANCH   9  14
ENDBRANCH   7   8
ENDBRANCH   4   7
BRANCH   1  19
ATOM     19  C   LIG    1        2.441   4.143   0.050  0.00  0.00    +0.141 C 
BRANCH  19  20
ATOM     20  C   LIG    1        1.189   3.305   0.086  0.00  0.00    -0.029 A 
ATOM     21  C   LIG    1       -0.051   3.917   0.132  0.00  0.00    +0.005 A 
ATOM     22  C   LIG    1       -1.205   3.155   0.165  0.00  0.00    +0.002 A 
ATOM     23  C   LIG    1       -1.127   1.778   0.152  0.00  0.00    +0.019 A 
ATOM     24  C   LIG    1        0.121   1.153   0.106  0.00  0.00    +0.052 A 
ATOM     25  C   LIG    1        1.282   1.929   0.079  0.00  0.00    +0.024 A 
BRANCH  24  26
ATOM     26  C   LIG    1        0.210  -0.276   0.092  0.00  0.00    +0.099 C 
ATOM     27  N   LIG    1        0.280  -1.410   0.082  0.00  0.00    -0.191 NA
ENDBRANCH  24  26
ENDBRANCH  19  20
ENDBRANCH   1  19
TORSDOF 6
