REMARK  Name = ZINC000095992493
REMARK                            x       y       z     vdW  Elec       q    Type
REMARK                         _______ _______ _______ _____ _____    ______ ____
ROOT
ATOM      1  C   LIG    1       -0.342   1.275   0.560  0.00  0.00    +0.048 C 
ATOM      2  C   LIG    1       -0.057  -0.086  -0.078  0.00  0.00    +0.101 C 
ENDROOT
BRANCH   2   3
ATOM      3  C   LIG    1       -1.359  -0.756  -0.435  0.00  0.00    -0.015 A 
ATOM      4  C   LIG    1       -1.988  -1.578   0.482  0.00  0.00    +0.008 A 
ATOM      5  C   LIG    1       -3.183  -2.189   0.155  0.00  0.00    +0.027 A 
ATOM      6  C   LIG    1       -3.746  -1.986  -1.091  0.00  0.00    +0.088 A 
ATOM      7  C   LIG    1       -3.115  -1.169  -2.010  0.00  0.00    +0.027 A 
ATOM      8  C   LIG    1       -1.921  -0.554  -1.682  0.00  0.00    +0.008 A 
BRANCH   6   9
ATOM      9  S   LIG    1       -5.269  -2.769  -1.508  0.00  0.00    -0.006 S 
ATOM     10  O   LIG    1       -5.911  -2.975  -0.258  0.00  0.00    -0.170 OA
ATOM     11  C   LIG    1       -4.776  -4.355  -2.239  0.00  0.00    +0.200 C 
ATOM     12  O   LIG    1       -5.840  -1.921  -2.495  0.00  0.00    -0.170 OA
ENDBRANCH   6   9
ENDBRANCH   2   3
BRANCH   2  13
ATOM     13  O   LIG    1        0.662  -0.905   0.847  0.00  0.00    -0.383 OA
ATOM     14  H   LIG    1        0.626  -1.850   0.646  0.00  0.00    +0.211 HD
ENDBRANCH   2  13
BRANCH   2  15
ATOM     15  C   LIG    1        0.780   0.110  -1.344  0.00  0.00    +0.124 C 
BRANCH  15  16
ATOM     16  N   LIG    1        0.906  -1.172  -2.050  0.00  0.00    -0.291 NA
ATOM     17  C   LIG    1        1.679  -2.154  -1.240  0.00  0.00    +0.120 C 
ATOM     18  C   LIG    1        2.271  -3.096  -2.269  0.00  0.00    -0.029 A 
ATOM     19  C   LIG    1        2.723  -4.396  -2.183  0.00  0.00    +0.005 A 
ATOM     20  C   LIG    1        3.226  -5.029  -3.305  0.00  0.00    +0.000 A 
ATOM     21  C   LIG    1        3.277  -4.357  -4.513  0.00  0.00    +0.000 A 
ATOM     22  C   LIG    1        2.824  -3.053  -4.600  0.00  0.00    +0.005 A 
ATOM     23  C   LIG    1        2.322  -2.423  -3.480  0.00  0.00    -0.029 A 
ATOM     24  C   LIG    1        1.763  -1.031  -3.260  0.00  0.00    +0.120 C 
ENDBRANCH  15  16
ENDBRANCH   2  15
TORSDOF 5
