REMARK  Name = ZINC000082099165
REMARK                            x       y       z     vdW  Elec       q    Type
REMARK                         _______ _______ _______ _____ _____    ______ ____
ROOT
ATOM      1  C   LIG    1        4.806  -0.426   1.220  0.00  0.00    +0.254 C 
ATOM      2  O   LIG    1        4.108  -0.035   2.131  0.00  0.00    -0.272 OA
ATOM      3  N   LIG    1        6.130  -0.592   1.409  0.00  0.00    -0.292 N 
ATOM      4  C   LIG    1        6.760  -0.306   2.708  0.00  0.00    +0.144 C 
ATOM      5  C   LIG    1        7.316  -1.626   3.256  0.00  0.00    +0.162 C 
ATOM      6  C   LIG    1        8.099  -2.357   2.197  0.00  0.00    -0.013 A 
ATOM      7  C   LIG    1        8.999  -3.328   2.617  0.00  0.00    +0.006 A 
ATOM      8  C   LIG    1        9.731  -4.052   1.698  0.00  0.00    +0.000 A 
ATOM      9  C   LIG    1        9.570  -3.809   0.347  0.00  0.00    +0.000 A 
ATOM     10  C   LIG    1        8.681  -2.840  -0.073  0.00  0.00    +0.005 A 
ATOM     11  C   LIG    1        7.948  -2.109   0.851  0.00  0.00    -0.024 A 
ATOM     12  C   LIG    1        7.003  -1.058   0.325  0.00  0.00    +0.143 C 
ENDROOT
BRANCH   5  13
ATOM     13  O   LIG    1        8.171  -1.348   4.366  0.00  0.00    -0.386 OA
ATOM     14  H   LIG    1        8.548  -2.137   4.779  0.00  0.00    +0.210 HD
ENDBRANCH   5  13
BRANCH   1  15
ATOM     15  C   LIG    1        4.193  -0.728  -0.123  0.00  0.00    +0.324 C 
BRANCH  15  16
ATOM     16  O   LIG    1        2.787  -0.477  -0.072  0.00  0.00    -0.481 OA
BRANCH  16  17
ATOM     17  C   LIG    1        2.079  -0.701  -1.210  0.00  0.00    +0.142 A 
ATOM     18  C   LIG    1        0.707  -0.490  -1.238  0.00  0.00    +0.083 A 
ATOM     19  N   LIG    1        0.016  -0.706  -2.339  0.00  0.00    -0.253 NA
ATOM     20  C   LIG    1        0.591  -1.131  -3.448  0.00  0.00    +0.039 A 
ATOM     21  C   LIG    1        1.952  -1.368  -3.496  0.00  0.00    +0.026 A 
ATOM     22  C   LIG    1       -0.248  -1.360  -4.679  0.00  0.00    +0.065 C 
ATOM     23  C   LIG    1        2.716  -1.154  -2.360  0.00  0.00    +0.049 A 
BRANCH  18  24
ATOM     24  C   LIG    1        0.002  -0.004   0.002  0.00  0.00    +0.056 C 
ATOM     25  C   LIG    1       -0.019   1.526   0.010  0.00  0.00    +0.010 C 
ENDBRANCH  18  24
ENDBRANCH  16  17
ENDBRANCH  15  16
ENDBRANCH   1  15
TORSDOF 5
