REMARK  Name = ZINC000012973009
REMARK                            x       y       z     vdW  Elec       q    Type
REMARK                         _______ _______ _______ _____ _____    ______ ____
ROOT
ATOM      1  C   LIG    1       -0.733  -5.652  -0.976  0.00  0.00    +0.226 C 
ATOM      2  N   LIG    1       -0.505  -6.894  -0.506  0.00  0.00    -0.298 N 
ATOM      3  C   LIG    1       -0.385  -7.145   0.938  0.00  0.00    +0.123 C 
ATOM      4  C   LIG    1       -1.326  -8.294   1.313  0.00  0.00    +0.104 C 
ATOM      5  N   LIG    1       -1.044  -9.454   0.456  0.00  0.00    -0.293 NA
ATOM      6  C   LIG    1       -1.313  -9.150  -0.956  0.00  0.00    +0.104 C 
ATOM      7  C   LIG    1       -0.377  -8.037  -1.424  0.00  0.00    +0.123 C 
ATOM      8  O   LIG    1       -0.835  -5.465  -2.170  0.00  0.00    -0.275 OA
ENDROOT
BRANCH   5   9
ATOM      9  C   LIG    1       -1.804 -10.631   0.896  0.00  0.00    +0.084 C 
ATOM     10  C   LIG    1       -1.427 -11.835   0.030  0.00  0.00    +0.029 C 
BRANCH   9  11
ATOM     11  C   LIG    1       -1.481 -10.928   2.337  0.00  0.00    -0.031 A 
ATOM     12  C   LIG    1       -2.498 -11.203   3.232  0.00  0.00    +0.005 A 
ATOM     13  C   LIG    1       -2.202 -11.476   4.554  0.00  0.00    +0.000 A 
ATOM     14  C   LIG    1       -0.887 -11.474   4.982  0.00  0.00    +0.000 A 
ATOM     15  C   LIG    1        0.131 -11.200   4.087  0.00  0.00    +0.000 A 
ATOM     16  C   LIG    1       -0.166 -10.931   2.764  0.00  0.00    +0.005 A 
ENDBRANCH   9  11
ENDBRANCH   5   9
BRANCH   1  17
ATOM     17  C   LIG    1       -0.861  -4.496  -0.018  0.00  0.00    +0.173 C 
BRANCH  17  18
ATOM     18  S   LIG    1       -1.162  -2.969  -0.951  0.00  0.00    -0.075 S 
BRANCH  18  19
ATOM     19  C   LIG    1       -1.282  -1.749   0.315  0.00  0.00    +0.209 A 
ATOM     20  N   LIG    1       -1.168  -1.971   1.604  0.00  0.00    -0.146 NA
ATOM     21  N   LIG    1       -1.323  -0.730   2.244  0.00  0.00    -0.262 N 
ATOM     22  H   LIG    1       -1.290  -0.561   3.198  0.00  0.00    +0.190 HD
ATOM     23  C   LIG    1       -1.532   0.175   1.273  0.00  0.00    +0.123 A 
ATOM     24  C   LIG    1       -1.757   1.652   1.476  0.00  0.00    +0.087 C 
ATOM     25  N   LIG    1       -1.503  -0.445   0.121  0.00  0.00    -0.207 NA
ENDBRANCH  18  19
ENDBRANCH  17  18
ENDBRANCH   1  17
TORSDOF 5
