REMARK  Name = ZINC000058194835
REMARK                            x       y       z     vdW  Elec       q    Type
REMARK                         _______ _______ _______ _____ _____    ______ ____
ROOT
ATOM      1  N   LIG    1        0.360   8.244   1.266  0.00  0.00    -0.297 NA
ATOM      2  C   LIG    1       -0.740   7.375   1.706  0.00  0.00    +0.100 C 
ATOM      3  C   LIG    1       -1.294   7.893   3.036  0.00  0.00    +0.100 C 
ATOM      4  N   LIG    1       -1.756   9.277   2.865  0.00  0.00    -0.294 NA
ATOM      5  C   LIG    1       -0.656  10.146   2.425  0.00  0.00    +0.100 C 
ATOM      6  C   LIG    1       -0.102   9.628   1.095  0.00  0.00    +0.100 C 
ENDROOT
BRANCH   4   7
ATOM      7  C   LIG    1       -2.366   9.785   4.101  0.00  0.00    +0.140 C 
BRANCH   7   8
ATOM      8  C   LIG    1       -3.043  11.103   3.823  0.00  0.00    +0.062 A 
ATOM      9  N   LIG    1       -2.400  12.253   3.842  0.00  0.00    -0.251 NA
ATOM     10  C   LIG    1       -3.085  13.315   3.583  0.00  0.00    +0.156 A 
ATOM     11  S   LIG    1       -4.718  12.904   3.287  0.00  0.00    -0.084 S 
ATOM     12  C   LIG    1       -4.346  11.201   3.542  0.00  0.00    +0.071 A 
ENDBRANCH   7   8
ENDBRANCH   4   7
BRANCH   1  13
ATOM     13  C   LIG    1        0.970   7.736   0.030  0.00  0.00    +0.125 C 
BRANCH  13  14
ATOM     14  C   LIG    1       -0.130   7.388  -0.975  0.00  0.00    +0.244 C 
BRANCH  14  15
ATOM     15  O   LIG    1       -0.815   8.580  -1.363  0.00  0.00    -0.491 OA
BRANCH  15  16
ATOM     16  C   LIG    1       -1.828   8.445  -2.257  0.00  0.00    +0.121 A 
ATOM     17  C   LIG    1       -2.535   9.566  -2.677  0.00  0.00    +0.047 A 
ATOM     18  C   LIG    1       -3.563   9.434  -3.584  0.00  0.00    +0.022 A 
ATOM     19  C   LIG    1       -3.895   8.171  -4.083  0.00  0.00    +0.052 A 
ATOM     20  C   LIG    1       -3.185   7.046  -3.654  0.00  0.00    +0.022 A 
ATOM     21  C   LIG    1       -2.155   7.188  -2.750  0.00  0.00    +0.047 A 
BRANCH  19  22
ATOM     22  C   LIG    1       -4.963   8.029  -5.026  0.00  0.00    +0.099 C 
ATOM     23  N   LIG    1       -5.811   7.917  -5.774  0.00  0.00    -0.191 NA
ENDBRANCH  19  22
ENDBRANCH  15  16
ENDBRANCH  14  15
ENDBRANCH  13  14
ENDBRANCH   1  13
TORSDOF 7
