REMARK  Name = ZINC000222223778
REMARK                            x       y       z     vdW  Elec       q    Type
REMARK                         _______ _______ _______ _____ _____    ______ ____
ROOT
ATOM      1  N   LIG    1        0.052  -2.797   2.393  0.00  0.00    -0.270 N 
ATOM      2  C   LIG    1        0.147  -2.227   3.606  0.00  0.00    +0.222 C 
ATOM      3  C   LIG    1        0.141  -3.289   4.683  0.00  0.00    +0.120 C 
ATOM      4  C   LIG    1        0.457  -4.598   3.923  0.00  0.00    +0.100 C 
ATOM      5  O   LIG    1        0.221  -1.033   3.809  0.00  0.00    -0.275 OA
ATOM      6  C   LIG    1       -0.028  -4.259   2.496  0.00  0.00    +0.136 C 
ENDROOT
BRANCH   1   7
ATOM      7  C   LIG    1        0.036  -2.089   1.186  0.00  0.00    +0.037 A 
ATOM      8  C   LIG    1        0.003  -0.700   1.195  0.00  0.00    +0.023 A 
ATOM      9  C   LIG    1       -0.013  -0.004   0.002  0.00  0.00    +0.002 A 
ATOM     10  C   LIG    1        0.004  -0.688  -1.200  0.00  0.00    +0.003 A 
ATOM     11  C   LIG    1        0.037  -2.070  -1.212  0.00  0.00    -0.049 A 
ATOM     12  C   LIG    1        0.056  -2.811  -2.523  0.00  0.00    +0.044 C 
ATOM     13  C   LIG    1        0.048  -2.773  -0.022  0.00  0.00    +0.027 A 
ENDBRANCH   1   7
BRANCH   4  14
ATOM     14  N   LIG    1       -0.299  -5.723   4.479  0.00  0.00    -0.305 N 
ATOM     15  C   LIG    1        0.248  -6.493   5.441  0.00  0.00    +0.264 C 
ATOM     16  O   LIG    1        1.369  -6.254   5.847  0.00  0.00    -0.268 OA
ATOM     17  H   LIG    1       -1.193  -5.915   4.156  0.00  0.00    +0.149 HD
BRANCH  15  18
ATOM     18  C   LIG    1       -0.513  -7.628   6.002  0.00  0.00    +0.147 A 
ATOM     19  C   LIG    1       -0.076  -8.520   7.009  0.00  0.00    +0.054 A 
ATOM     20  C   LIG    1       -1.101  -9.383   7.198  0.00  0.00    +0.115 A 
ATOM     21  N   LIG    1       -2.085  -9.028   6.345  0.00  0.00    -0.211 N 
ATOM     22  N   LIG    1       -1.728  -8.005   5.655  0.00  0.00    -0.162 NA
BRANCH  21  23
ATOM     23  C   LIG    1       -3.375  -9.712   6.222  0.00  0.00    +0.464 C 
ATOM     24  F   LIG    1       -3.217 -11.066   6.536  0.00  0.00    -0.183 F 
ATOM     25  F   LIG    1       -3.845  -9.589   4.910  0.00  0.00    -0.183 F 
ENDBRANCH  21  23
ENDBRANCH  15  18
ENDBRANCH   4  14
TORSDOF 4
