REMARK  Name = ZINC000095992240
REMARK                            x       y       z     vdW  Elec       q    Type
REMARK                         _______ _______ _______ _____ _____    ______ ____
ROOT
ATOM      1  C   LIG    1        0.038  -0.146   2.441  0.00  0.00    +0.265 C 
ATOM      2  O   LIG    1        0.170  -0.882   3.401  0.00  0.00    -0.268 OA
ATOM      3  N   LIG    1       -0.102   1.182   2.625  0.00  0.00    -0.303 N 
ATOM      4  H   LIG    1       -0.283   1.760   1.867  0.00  0.00    +0.150 HD
ENDROOT
BRANCH   3   5
ATOM      5  C   LIG    1        0.016   1.752   3.969  0.00  0.00    +0.107 C 
ATOM      6  C   LIG    1       -1.322   1.668   4.677  0.00  0.00    +0.015 A 
ATOM      7  C   LIG    1       -1.403   1.988   6.017  0.00  0.00    +0.128 A 
ATOM      8  O   LIG    1       -0.301   2.425   6.687  0.00  0.00    -0.492 OA
ATOM      9  C   LIG    1        0.157   3.735   6.338  0.00  0.00    +0.229 C 
ATOM     10  C   LIG    1        1.099   3.683   5.154  0.00  0.00    +0.043 C 
ATOM     11  C   LIG    1       -2.613   1.866   6.685  0.00  0.00    +0.084 A 
ATOM     12  C   LIG    1       -3.736   1.442   5.996  0.00  0.00    +0.127 A 
ATOM     13  F   LIG    1       -4.917   1.320   6.642  0.00  0.00    -0.205 F 
ATOM     14  C   LIG    1       -3.653   1.143   4.647  0.00  0.00    +0.039 A 
ATOM     15  C   LIG    1       -2.444   1.258   3.985  0.00  0.00    +0.012 A 
ATOM     16  C   LIG    1        0.429   3.221   3.868  0.00  0.00    +0.030 C 
ENDBRANCH   3   5
BRANCH   1  17
ATOM     17  C   LIG    1        0.033  -0.706   1.080  0.00  0.00    +0.153 A 
ATOM     18  C   LIG    1        1.135  -1.071   0.328  0.00  0.00    +0.176 A 
ATOM     19  C   LIG    1        0.619  -1.542  -0.881  0.00  0.00    +0.168 A 
ATOM     20  N   LIG    1       -0.686  -1.457  -0.821  0.00  0.00    -0.177 NA
ATOM     21  N   LIG    1       -1.062  -0.976   0.310  0.00  0.00    -0.260 N 
ATOM     22  C   LIG    1       -2.453  -0.748   0.709  0.00  0.00    +0.173 C 
BRANCH  18  23
ATOM     23  N   LIG    1        2.560  -0.976   0.718  0.00  0.00    +0.060 N 
ATOM     24  O   LIG    1        2.863  -0.541   1.815  0.00  0.00    -0.126 OA
ATOM     25  O   LIG    1        3.429  -1.334  -0.056  0.00  0.00    -0.126 OA
ENDBRANCH  18  23
ENDBRANCH   1  17
TORSDOF 3
