REMARK  Name = ZINC000005578669
REMARK                            x       y       z     vdW  Elec       q    Type
REMARK                         _______ _______ _______ _____ _____    ______ ____
ROOT
ATOM      1  N   LIG    1        1.448  -4.745  -0.032  0.00  0.00    -0.307 N 
ATOM      2  H   LIG    1        2.176  -4.105  -0.032  0.00  0.00    +0.149 HD
ATOM      3  C   LIG    1        1.711  -6.067  -0.040  0.00  0.00    +0.244 C 
ATOM      4  O   LIG    1        0.798  -6.869  -0.040  0.00  0.00    -0.270 OA
ENDROOT
BRANCH   3   5
ATOM      5  C   LIG    1        3.112  -6.541  -0.050  0.00  0.00    +0.037 A 
ATOM      6  C   LIG    1        4.163  -5.623  -0.045  0.00  0.00    +0.015 A 
ATOM      7  C   LIG    1        5.467  -6.072  -0.054  0.00  0.00    +0.029 A 
ATOM      8  C   LIG    1        5.734  -7.430  -0.069  0.00  0.00    +0.105 A 
ATOM      9  C   LIG    1        4.697  -8.345  -0.073  0.00  0.00    +0.029 A 
ATOM     10  C   LIG    1        3.388  -7.909  -0.059  0.00  0.00    +0.015 A 
BRANCH   8  11
ATOM     11  S   LIG    1        7.403  -7.995  -0.081  0.00  0.00    +0.060 S 
ATOM     12  O   LIG    1        8.182  -6.934  -0.617  0.00  0.00    -0.153 OA
ATOM     13  O   LIG    1        7.380  -9.302  -0.638  0.00  0.00    -0.153 OA
BRANCH  11  14
ATOM     14  N   LIG    1        7.873  -8.168   1.498  0.00  0.00    -0.183 NA
ATOM     15  C   LIG    1        8.489  -7.043   2.207  0.00  0.00    +0.131 C 
ATOM     16  C   LIG    1        7.674  -9.446   2.186  0.00  0.00    +0.131 C 
ENDBRANCH  11  14
ENDBRANCH   8  11
ENDBRANCH   3   5
BRANCH   1  17
ATOM     17  C   LIG    1        0.060  -4.275  -0.021  0.00  0.00    +0.139 C 
BRANCH  17  18
ATOM     18  C   LIG    1        0.040  -2.768  -0.013  0.00  0.00    -0.030 A 
ATOM     19  C   LIG    1        0.038  -2.084   1.188  0.00  0.00    +0.005 A 
ATOM     20  C   LIG    1        0.023  -0.702   1.195  0.00  0.00    +0.003 A 
ATOM     21  C   LIG    1        0.002  -0.004   0.002  0.00  0.00    -0.050 A 
ATOM     22  C   LIG    1       -0.018   1.503   0.010  0.00  0.00    +0.044 C 
ATOM     23  C   LIG    1        0.006  -0.689  -1.199  0.00  0.00    +0.003 A 
ATOM     24  C   LIG    1        0.025  -2.071  -1.206  0.00  0.00    +0.005 A 
ENDBRANCH  17  18
ENDBRANCH   1  17
TORSDOF 5
