REMARK  Name = ZINC000069618251
REMARK                            x       y       z     vdW  Elec       q    Type
REMARK                         _______ _______ _______ _____ _____    ______ ____
ROOT
ATOM      1  C   LIG    1        2.579  -2.529   4.298  0.00  0.00    +0.161 A 
ATOM      2  N   LIG    1        3.178  -1.910   5.341  0.00  0.00    -0.257 N 
ATOM      3  N   LIG    1        3.681  -2.926   6.169  0.00  0.00    -0.136 NA
ATOM      4  C   LIG    1        3.380  -4.069   5.599  0.00  0.00    +0.241 A 
ATOM      5  H   LIG    1        3.241  -0.954   5.491  0.00  0.00    +0.191 HD
ATOM      6  N   LIG    1        2.713  -3.830   4.468  0.00  0.00    -0.194 NA
ENDROOT
BRANCH   1   7
ATOM      7  C   LIG    1        1.900  -1.865   3.166  0.00  0.00    +0.061 A 
ATOM      8  C   LIG    1        1.836  -0.472   3.108  0.00  0.00    +0.019 A 
ATOM      9  C   LIG    1        1.202   0.143   2.050  0.00  0.00    +0.046 A 
ATOM     10  C   LIG    1        0.625  -0.618   1.041  0.00  0.00    +0.124 A 
ATOM     11  C   LIG    1        0.680  -2.003   1.093  0.00  0.00    +0.092 A 
ATOM     12  C   LIG    1        1.318  -2.632   2.148  0.00  0.00    +0.134 A 
BRANCH  10  13
ATOM     13  O   LIG    1        0.002  -0.004   0.002  0.00  0.00    -0.495 OA
ATOM     14  C   LIG    1       -0.017   1.425   0.010  0.00  0.00    +0.277 C 
ENDBRANCH  10  13
BRANCH  12  15
ATOM     15  O   LIG    1        1.377  -3.988   2.198  0.00  0.00    -0.494 OA
ATOM     16  C   LIG    1        0.762  -4.704   1.125  0.00  0.00    +0.277 C 
ENDBRANCH  12  15
ENDBRANCH   1   7
BRANCH   4  17
ATOM     17  N   LIG    1        3.704  -5.335   6.097  0.00  0.00    -0.251 N 
ATOM     18  C   LIG    1        4.383  -5.449   7.256  0.00  0.00    +0.245 C 
ATOM     19  O   LIG    1        4.713  -4.455   7.866  0.00  0.00    -0.273 OA
ATOM     20  H   LIG    1        3.441  -6.130   5.609  0.00  0.00    +0.158 HD
BRANCH  18  21
ATOM     21  C   LIG    1        4.734  -6.813   7.793  0.00  0.00    +0.256 C 
BRANCH  21  22
ATOM     22  O   LIG    1        5.447  -6.672   9.022  0.00  0.00    -0.367 OA
BRANCH  22  23
ATOM     23  C   LIG    1        5.829  -7.914   9.618  0.00  0.00    +0.119 C 
ATOM     24  C   LIG    1        5.885  -7.781  11.154  0.00  0.00    +0.031 C 
ATOM     25  C   LIG    1        7.085  -8.621  11.625  0.00  0.00    +0.003 C 
ATOM     26  C   LIG    1        7.716  -9.236  10.359  0.00  0.00    +0.003 C 
ATOM     27  C   LIG    1        7.278  -8.286   9.216  0.00  0.00    +0.031 C 
ENDBRANCH  22  23
ENDBRANCH  21  22
ENDBRANCH  18  21
ENDBRANCH   4  17
TORSDOF 7
