REMARK  Name = ZINC000004667090
REMARK                            x       y       z     vdW  Elec       q    Type
REMARK                         _______ _______ _______ _____ _____    ______ ____
ROOT
ATOM      1  S   LIG    1        2.047  -0.439  -1.632  0.00  0.00    +0.059 S 
ATOM      2  O   LIG    1        2.656   0.029  -0.436  0.00  0.00    -0.153 OA
ATOM      3  O   LIG    1        2.489  -1.597  -2.328  0.00  0.00    -0.153 OA
ENDROOT
BRANCH   1   4
ATOM      4  C   LIG    1        2.123   0.893  -2.783  0.00  0.00    +0.105 A 
ATOM      5  C   LIG    1        2.428   2.168  -2.345  0.00  0.00    +0.029 A 
ATOM      6  C   LIG    1        2.493   3.212  -3.249  0.00  0.00    +0.016 A 
ATOM      7  C   LIG    1        2.242   2.983  -4.589  0.00  0.00    +0.013 A 
ATOM      8  C   LIG    1        1.932   1.708  -5.026  0.00  0.00    +0.016 A 
ATOM      9  I   LIG    1        2.332   4.567  -5.958  0.00  0.00    -0.044 I 
ATOM     10  C   LIG    1        1.873   0.663  -4.123  0.00  0.00    +0.029 A 
ENDBRANCH   1   4
BRANCH   1  11
ATOM     11  N   LIG    1        0.449  -0.689  -1.276  0.00  0.00    -0.185 NA
ATOM     12  H   LIG    1        0.008  -1.501  -1.570  0.00  0.00    +0.149 HD
BRANCH  11  13
ATOM     13  C   LIG    1       -0.298   0.317  -0.518  0.00  0.00    +0.032 C 
ATOM     14  C   LIG    1        0.224   0.363   0.920  0.00  0.00    +0.029 C 
ATOM     15  C   LIG    1       -1.783  -0.050  -0.510  0.00  0.00    +0.029 C 
ATOM     16  C   LIG    1       -0.115   1.688  -1.171  0.00  0.00    +0.029 C 
ENDBRANCH  11  13
ENDBRANCH   1  11
TORSDOF 3
