REMARK  Name = ZINC000082137211
REMARK                            x       y       z     vdW  Elec       q    Type
REMARK                         _______ _______ _______ _____ _____    ______ ____
ROOT
ATOM      1  C   LIG    1        0.094  -6.300   1.040  0.00  0.00    +0.044 C 
ATOM      2  C   LIG    1        0.235  -7.000   2.394  0.00  0.00    +0.010 C 
ATOM      3  C   LIG    1        0.288  -8.515   2.183  0.00  0.00    +0.019 C 
ATOM      4  C   LIG    1       -1.017  -8.982   1.530  0.00  0.00    +0.108 C 
ATOM      5  N   LIG    1       -1.233  -8.209   0.300  0.00  0.00    -0.301 N 
ATOM      6  C   LIG    1       -1.446  -8.834  -0.875  0.00  0.00    +0.217 C 
ATOM      7  O   LIG    1       -1.623  -8.185  -1.884  0.00  0.00    -0.276 OA
ATOM      8  C   LIG    1       -1.212  -6.742   0.374  0.00  0.00    +0.114 C 
ENDROOT
BRANCH   6   9
ATOM      9  C   LIG    1       -1.465 -10.340  -0.936  0.00  0.00    +0.117 C 
BRANCH   9  10
ATOM     10  C   LIG    1       -1.724 -10.789  -2.375  0.00  0.00    +0.133 C 
BRANCH  10  11
ATOM     11  N   LIG    1       -1.742 -12.253  -2.433  0.00  0.00    -0.319 N 
ATOM     12  C   LIG    1       -2.817 -13.062  -2.276  0.00  0.00    +0.224 A 
ATOM     13  N   LIG    1       -2.401 -14.292  -2.405  0.00  0.00    -0.138 NA
ATOM     14  N   LIG    1       -1.133 -14.299  -2.625  0.00  0.00    -0.138 NA
ATOM     15  C   LIG    1       -0.685 -13.073  -2.651  0.00  0.00    +0.224 A 
ENDBRANCH  10  11
ENDBRANCH   9  10
ENDBRANCH   6   9
BRANCH   1  16
ATOM     16  C   LIG    1        0.074  -4.785   1.249  0.00  0.00    +0.234 C 
BRANCH  16  17
ATOM     17  O   LIG    1        0.059  -4.129  -0.021  0.00  0.00    -0.492 OA
BRANCH  17  18
ATOM     18  C   LIG    1        0.040  -2.770  -0.013  0.00  0.00    +0.121 A 
ATOM     19  C   LIG    1        0.037  -2.082   1.191  0.00  0.00    +0.046 A 
ATOM     20  C   LIG    1        0.023  -0.701   1.196  0.00  0.00    +0.007 A 
ATOM     21  C   LIG    1        0.002  -0.004   0.002  0.00  0.00    -0.050 A 
ATOM     22  C   LIG    1       -0.018   1.503   0.010  0.00  0.00    +0.044 C 
ATOM     23  C   LIG    1        0.006  -0.688  -1.200  0.00  0.00    +0.007 A 
ATOM     24  C   LIG    1        0.025  -2.069  -1.210  0.00  0.00    +0.046 A 
ENDBRANCH  17  18
ENDBRANCH  16  17
ENDBRANCH   1  16
TORSDOF 6
