REMARK  Name = ZINC000095993549
REMARK                            x       y       z     vdW  Elec       q    Type
REMARK                         _______ _______ _______ _____ _____    ______ ____
ROOT
ATOM      1  C   LIG    1       -2.382  -5.458  -0.587  0.00  0.00    +0.268 C 
ATOM      2  N   LIG    1       -3.597  -5.546  -0.010  0.00  0.00    -0.280 N 
ATOM      3  H   LIG    1       -3.962  -4.786   0.470  0.00  0.00    +0.155 HD
ATOM      4  O   LIG    1       -1.890  -6.434  -1.120  0.00  0.00    -0.268 OA
ENDROOT
BRANCH   1   5
ATOM      5  C   LIG    1       -1.650  -4.177  -0.573  0.00  0.00    +0.144 A 
ATOM      6  N   LIG    1       -2.079  -3.028  -0.020  0.00  0.00    -0.223 NA
ATOM      7  C   LIG    1       -1.162  -2.093  -0.200  0.00  0.00    +0.139 A 
ATOM      8  C   LIG    1       -1.111  -0.733   0.176  0.00  0.00    +0.050 A 
ATOM      9  C   LIG    1       -0.018   0.007  -0.148  0.00  0.00    -0.046 A 
ATOM     10  C   LIG    1        0.056   1.460   0.245  0.00  0.00    +0.044 C 
ATOM     11  C   LIG    1        1.042  -0.587  -0.856  0.00  0.00    +0.021 A 
ATOM     12  C   LIG    1        0.983  -1.888  -1.205  0.00  0.00    +0.093 A 
ATOM     13  N   LIG    1       -0.109  -2.646  -0.886  0.00  0.00    -0.306 N 
ATOM     14  C   LIG    1       -0.418  -3.952  -1.118  0.00  0.00    +0.125 A 
ENDBRANCH   1   5
BRANCH   2  15
ATOM     15  C   LIG    1       -4.332  -6.732  -0.104  0.00  0.00    +0.038 A 
ATOM     16  C   LIG    1       -3.678  -7.957  -0.102  0.00  0.00    +0.023 A 
ATOM     17  C   LIG    1       -4.406  -9.127  -0.195  0.00  0.00    +0.002 A 
ATOM     18  C   LIG    1       -5.785  -9.080  -0.288  0.00  0.00    +0.000 A 
ATOM     19  C   LIG    1       -6.439  -7.861  -0.290  0.00  0.00    +0.007 A 
ATOM     20  C   LIG    1       -5.717  -6.688  -0.193  0.00  0.00    -0.009 A 
BRANCH  20  21
ATOM     21  C   LIG    1       -6.431  -5.361  -0.195  0.00  0.00    +0.146 C 
BRANCH  21  22
ATOM     22  N   LIG    1       -6.353  -4.766  -1.531  0.00  0.00    -0.280 N 
ATOM     23  C   LIG    1       -5.284  -3.875  -2.006  0.00  0.00    +0.128 A 
ATOM     24  C   LIG    1       -5.691  -3.551  -3.457  0.00  0.00    +0.124 A 
ATOM     25  N   LIG    1       -6.946  -4.293  -3.645  0.00  0.00    -0.298 N 
ATOM     26  H   LIG    1       -7.475  -4.306  -4.458  0.00  0.00    +0.150 HD
ATOM     27  C   LIG    1       -7.241  -4.952  -2.517  0.00  0.00    +0.303 A 
ATOM     28  O   LIG    1       -8.230  -5.648  -2.395  0.00  0.00    -0.253 OA
ENDBRANCH  21  22
ENDBRANCH  20  21
ENDBRANCH   2  15
TORSDOF 4
