REMARK  Name = ZINC000000237808
REMARK                            x       y       z     vdW  Elec       q    Type
REMARK                         _______ _______ _______ _____ _____    ______ ____
ROOT
ATOM      1  C   LIG    1       -1.305   1.933   0.019  0.00  0.00    +0.037 A 
ATOM      2  C   LIG    1       -2.506   1.222   0.021  0.00  0.00    +0.015 A 
ATOM      3  C   LIG    1       -3.706   1.901   0.035  0.00  0.00    +0.029 A 
ATOM      4  C   LIG    1       -3.721   3.285   0.037  0.00  0.00    +0.106 A 
ATOM      5  C   LIG    1       -2.534   3.996   0.029  0.00  0.00    +0.029 A 
ATOM      6  C   LIG    1       -1.327   3.329   0.021  0.00  0.00    +0.015 A 
ENDROOT
BRANCH   1   7
ATOM      7  C   LIG    1       -0.014   1.211   0.009  0.00  0.00    +0.244 C 
ATOM      8  O   LIG    1        0.002  -0.004   0.002  0.00  0.00    -0.270 OA
ATOM      9  N   LIG    1        1.143   1.901   0.001  0.00  0.00    -0.304 N 
ATOM     10  H   LIG    1        1.130   2.871   0.007  0.00  0.00    +0.149 HD
BRANCH   9  11
ATOM     11  C   LIG    1        2.422   1.186  -0.015  0.00  0.00    +0.179 C 
BRANCH  11  12
ATOM     12  C   LIG    1        3.554   2.181  -0.020  0.00  0.00    +0.122 A 
ATOM     13  C   LIG    1        4.159   2.690   1.068  0.00  0.00    +0.046 A 
ATOM     14  C   LIG    1        5.157   3.577   0.604  0.00  0.00    +0.041 A 
ATOM     15  C   LIG    1        5.103   3.557  -0.740  0.00  0.00    +0.195 A 
ATOM     16  O   LIG    1        4.134   2.705  -1.112  0.00  0.00    -0.466 OA
ENDBRANCH  11  12
ENDBRANCH   9  11
ENDBRANCH   1   7
BRANCH   4  17
ATOM     17  S   LIG    1       -5.259   4.145   0.048  0.00  0.00    +0.061 S 
ATOM     18  O   LIG    1       -6.216   3.250   0.599  0.00  0.00    -0.153 OA
ATOM     19  O   LIG    1       -4.995   5.431   0.592  0.00  0.00    -0.153 OA
BRANCH  17  20
ATOM     20  N   LIG    1       -5.698   4.386  -1.530  0.00  0.00    -0.177 NA
ATOM     21  C   LIG    1       -6.513   3.391  -2.240  0.00  0.00    +0.109 C 
ATOM     22  C   LIG    1       -5.806   3.002  -3.537  0.00  0.00    +0.017 C 
ATOM     23  C   LIG    1       -5.503   4.263  -4.349  0.00  0.00    +0.003 C 
ATOM     24  C   LIG    1       -4.575   5.178  -3.547  0.00  0.00    +0.017 C 
ATOM     25  C   LIG    1       -5.274   5.595  -2.249  0.00  0.00    +0.109 C 
ENDBRANCH  17  20
ENDBRANCH   4  17
TORSDOF 5
