REMARK  Name = ZINC000042369521
REMARK                            x       y       z     vdW  Elec       q    Type
REMARK                         _______ _______ _______ _____ _____    ______ ____
ROOT
ATOM      1  N   LIG    1       -1.377  -0.498   0.044  0.00  0.00    -0.308 N 
ATOM      2  H   LIG    1       -1.665  -1.068   0.774  0.00  0.00    +0.149 HD
ATOM      3  C   LIG    1       -2.244  -0.158  -0.930  0.00  0.00    +0.214 C 
ATOM      4  O   LIG    1       -1.883   0.555  -1.842  0.00  0.00    -0.276 OA
ENDROOT
BRANCH   1   5
ATOM      5  C   LIG    1        0.002  -0.004   0.002  0.00  0.00    +0.052 C 
ATOM      6  C   LIG    1        0.747  -0.499   1.251  0.00  0.00    +0.191 C 
ATOM      7  S   LIG    1        2.194  -1.428   0.616  0.00  0.00    -0.029 S 
ATOM      8  O   LIG    1        3.364  -1.035   1.319  0.00  0.00    -0.174 OA
ATOM      9  O   LIG    1        1.863  -2.805   0.498  0.00  0.00    -0.174 OA
ATOM     10  C   LIG    1        2.182  -0.646  -1.048  0.00  0.00    +0.168 C 
ATOM     11  C   LIG    1       -0.019   1.526   0.010  0.00  0.00    +0.033 C 
ATOM     12  C   LIG    1        0.659  -0.484  -1.293  0.00  0.00    +0.049 C 
ENDBRANCH   1   5
BRANCH   3  13
ATOM     13  C   LIG    1       -3.662  -0.666  -0.886  0.00  0.00    +0.102 C 
BRANCH  13  14
ATOM     14  C   LIG    1       -4.430  -0.138  -2.100  0.00  0.00    -0.020 C 
ATOM     15  C   LIG    1       -5.870  -0.653  -2.055  0.00  0.00    +0.011 C 
ATOM     16  C   LIG    1       -6.638  -0.126  -3.269  0.00  0.00    -0.010 C 
ATOM     17  C   LIG    1       -6.643   1.404  -3.243  0.00  0.00    +0.007 C 
ATOM     18  C   LIG    1       -5.204   1.920  -3.287  0.00  0.00    -0.010 C 
ATOM     19  C   LIG    1       -4.527   1.433  -4.571  0.00  0.00    +0.007 C 
ATOM     20  C   LIG    1       -4.522  -0.097  -4.596  0.00  0.00    -0.010 C 
ATOM     21  C   LIG    1       -5.962  -0.612  -4.552  0.00  0.00    +0.007 C 
ATOM     22  C   LIG    1       -4.435   1.392  -2.074  0.00  0.00    +0.011 C 
ATOM     23  C   LIG    1       -3.754  -0.625  -3.383  0.00  0.00    +0.011 C 
ENDBRANCH  13  14
ENDBRANCH   3  13
TORSDOF 3
