REMARK  Name = ZINC000012982129
REMARK                            x       y       z     vdW  Elec       q    Type
REMARK                         _______ _______ _______ _____ _____    ______ ____
ROOT
ATOM      1  N   LIG    1       -2.494  -5.178   2.511  0.00  0.00    -0.296 N 
ATOM      2  H   LIG    1       -2.082  -4.989   3.369  0.00  0.00    +0.151 HD
ATOM      3  C   LIG    1       -3.332  -6.226   2.382  0.00  0.00    +0.300 C 
ATOM      4  N   LIG    1       -3.598  -7.011   3.444  0.00  0.00    -0.299 N 
ATOM      5  H   LIG    1       -3.186  -6.822   4.302  0.00  0.00    +0.150 HD
ATOM      6  O   LIG    1       -3.848  -6.462   1.306  0.00  0.00    -0.253 OA
ENDROOT
BRANCH   1   7
ATOM      7  C   LIG    1       -2.204  -4.324   1.356  0.00  0.00    +0.077 C 
ATOM      8  C   LIG    1       -0.843  -3.652   1.548  0.00  0.00    +0.041 C 
ATOM      9  C   LIG    1       -0.528  -2.787   0.323  0.00  0.00    +0.109 C 
ATOM     10  N   LIG    1       -1.639  -1.850   0.107  0.00  0.00    -0.301 N 
ATOM     11  C   LIG    1       -1.411  -0.526   0.009  0.00  0.00    +0.218 C 
ATOM     12  O   LIG    1       -2.344   0.246  -0.068  0.00  0.00    -0.275 OA
ATOM     13  C   LIG    1       -3.005  -2.384   0.006  0.00  0.00    +0.109 C 
ATOM     14  C   LIG    1       -3.291  -3.254   1.229  0.00  0.00    +0.041 C 
BRANCH  11  15
ATOM     15  C   LIG    1        0.002  -0.003  -0.003  0.00  0.00    +0.069 C 
ATOM     16  C   LIG    1        0.493   0.174   1.435  0.00  0.00    +0.017 C 
ATOM     17  C   LIG    1        0.041   1.345  -0.726  0.00  0.00    +0.017 C 
ENDBRANCH  11  15
ENDBRANCH   1   7
BRANCH   4  18
ATOM     18  C   LIG    1       -4.509  -8.150   3.303  0.00  0.00    +0.110 C 
BRANCH  18  19
ATOM     19  C   LIG    1       -4.637  -8.870   4.647  0.00  0.00    +0.054 C 
BRANCH  19  20
ATOM     20  C   LIG    1       -5.574 -10.041   4.503  0.00  0.00    -0.046 A 
ATOM     21  C   LIG    1       -6.929  -9.873   4.720  0.00  0.00    +0.006 A 
ATOM     22  C   LIG    1       -7.789 -10.946   4.587  0.00  0.00    +0.038 A 
ATOM     23  C   LIG    1       -7.293 -12.191   4.237  0.00  0.00    +0.123 A 
ATOM     24  F   LIG    1       -8.133 -13.241   4.106  0.00  0.00    -0.205 F 
ATOM     25  C   LIG    1       -5.936 -12.358   4.019  0.00  0.00    +0.038 A 
ATOM     26  C   LIG    1       -5.078 -11.282   4.148  0.00  0.00    +0.006 A 
ENDBRANCH  19  20
ENDBRANCH  18  19
ENDBRANCH   4  18
TORSDOF 5
