REMARK  Name = ZINC000074534516
REMARK                            x       y       z     vdW  Elec       q    Type
REMARK                         _______ _______ _______ _____ _____    ______ ____
ROOT
ATOM      1  N   LIG    1       -2.317  -3.323   1.082  0.00  0.00    -0.287 N 
ATOM      2  H   LIG    1       -2.289  -4.017   1.760  0.00  0.00    +0.151 HD
ATOM      3  C   LIG    1       -3.255  -2.357   1.146  0.00  0.00    +0.301 C 
ATOM      4  N   LIG    1       -4.152  -2.354   2.151  0.00  0.00    -0.292 N 
ATOM      5  H   LIG    1       -4.124  -3.047   2.829  0.00  0.00    +0.151 HD
ATOM      6  O   LIG    1       -3.290  -1.488   0.296  0.00  0.00    -0.253 OA
ENDROOT
BRANCH   1   7
ATOM      7  C   LIG    1       -1.342  -3.327  -0.010  0.00  0.00    +0.099 C 
ATOM      8  C   LIG    1       -0.406  -4.548   0.105  0.00  0.00    +0.034 C 
ATOM      9  C   LIG    1       -1.001  -5.644  -0.797  0.00  0.00    +0.003 C 
ATOM     10  C   LIG    1       -2.277  -5.050  -1.429  0.00  0.00    +0.003 C 
ATOM     11  C   LIG    1       -2.051  -3.519  -1.374  0.00  0.00    +0.034 C 
BRANCH   7  12
ATOM     12  C   LIG    1       -0.543  -2.049  -0.007  0.00  0.00    +0.195 A 
ATOM     13  N   LIG    1       -1.041  -0.799   0.002  0.00  0.00    -0.194 NA
ATOM     14  C   LIG    1        0.002  -0.004   0.002  0.00  0.00    +0.224 A 
ATOM     15  C   LIG    1       -0.018   1.503   0.010  0.00  0.00    +0.112 C 
ATOM     16  O   LIG    1        1.086  -0.785  -0.013  0.00  0.00    -0.338 OA
ATOM     17  N   LIG    1        0.753  -1.952  -0.012  0.00  0.00    -0.059 NA
ENDBRANCH   7  12
ENDBRANCH   1   7
BRANCH   4  18
ATOM     18  C   LIG    1       -5.171  -1.303   2.220  0.00  0.00    +0.180 C 
BRANCH  18  19
ATOM     19  C   LIG    1       -6.043  -1.527   3.429  0.00  0.00    +0.127 A 
ATOM     20  N   LIG    1       -5.821  -1.027   4.663  0.00  0.00    -0.333 N 
ATOM     21  C   LIG    1       -6.841  -1.462   5.466  0.00  0.00    +0.107 A 
ATOM     22  C   LIG    1       -7.646  -2.219   4.697  0.00  0.00    +0.130 A 
ATOM     23  N   LIG    1       -7.135  -2.242   3.457  0.00  0.00    -0.239 NA
BRANCH  20  24
ATOM     24  C   LIG    1       -4.702  -0.172   5.066  0.00  0.00    +0.126 C 
BRANCH  24  25
ATOM     25  C   LIG    1       -5.033   1.287   4.745  0.00  0.00    +0.003 C 
ATOM     26  C   LIG    1       -6.218   1.741   5.600  0.00  0.00    +0.009 C 
ATOM     27  C   LIG    1       -3.818   2.165   5.049  0.00  0.00    +0.009 C 
ENDBRANCH  24  25
ENDBRANCH  20  24
ENDBRANCH  18  19
ENDBRANCH   4  18
TORSDOF 6
