REMARK  Name = ZINC000009647955
REMARK                            x       y       z     vdW  Elec       q    Type
REMARK                         _______ _______ _______ _____ _____    ______ ____
ROOT
ATOM      1  C   LIG    1       -1.382  -5.397  -1.488  0.00  0.00    +0.217 C 
ATOM      2  O   LIG    1       -1.384  -5.297  -2.698  0.00  0.00    -0.287 OA
ENDROOT
BRANCH   1   3
ATOM      3  C   LIG    1       -1.333  -4.235  -0.682  0.00  0.00    +0.090 A 
ATOM      4  N   LIG    1       -1.326  -4.205   0.698  0.00  0.00    -0.355 N 
ATOM      5  H   LIG    1       -1.353  -4.983   1.276  0.00  0.00    +0.166 HD
ATOM      6  C   LIG    1       -1.275  -2.930   1.113  0.00  0.00    +0.028 A 
ATOM      7  C   LIG    1       -1.251  -2.474   2.549  0.00  0.00    +0.064 C 
ATOM      8  C   LIG    1       -1.247  -2.104   0.003  0.00  0.00    +0.083 A 
ATOM      9  C   LIG    1       -1.291  -2.935  -1.137  0.00  0.00    -0.008 A 
ATOM     10  C   LIG    1       -1.282  -2.487  -2.576  0.00  0.00    +0.047 C 
BRANCH   8  11
ATOM     11  C   LIG    1       -1.190  -0.632   0.010  0.00  0.00    +0.341 C 
ATOM     12  O   LIG    1       -2.218   0.016   0.023  0.00  0.00    -0.245 OA
BRANCH  11  13
ATOM     13  O   LIG    1        0.002  -0.004   0.002  0.00  0.00    -0.464 OA
ATOM     14  C   LIG    1       -0.018   1.448   0.010  0.00  0.00    +0.280 C 
ENDBRANCH  11  13
ENDBRANCH   8  11
ENDBRANCH   1   3
BRANCH   1  15
ATOM     15  C   LIG    1       -1.432  -6.759  -0.845  0.00  0.00    +0.313 C 
BRANCH  15  16
ATOM     16  O   LIG    1       -1.476  -7.780  -1.876  0.00  0.00    -0.452 OA
BRANCH  16  17
ATOM     17  C   LIG    1       -1.524  -9.064  -1.464  0.00  0.00    +0.356 C 
ATOM     18  O   LIG    1       -1.529  -9.322  -0.276  0.00  0.00    -0.243 OA
BRANCH  17  19
ATOM     19  C   LIG    1       -1.571 -10.148  -2.449  0.00  0.00    +0.127 A 
ATOM     20  C   LIG    1       -1.629 -11.499  -2.175  0.00  0.00    +0.035 A 
ATOM     21  C   LIG    1       -1.658 -12.164  -3.404  0.00  0.00    +0.023 A 
ATOM     22  C   LIG    1       -1.619 -11.229  -4.383  0.00  0.00    +0.016 A 
ATOM     23  C   LIG    1       -1.631 -11.511  -5.863  0.00  0.00    +0.063 C 
ATOM     24  N   LIG    1       -1.572 -10.004  -3.819  0.00  0.00    -0.342 N 
ATOM     25  C   LIG    1       -1.520  -8.732  -4.543  0.00  0.00    +0.149 C 
ENDBRANCH  17  19
ENDBRANCH  16  17
ENDBRANCH  15  16
ENDBRANCH   1  15
TORSDOF 7
