REMARK  Name = ZINC000058191523
REMARK                            x       y       z     vdW  Elec       q    Type
REMARK                         _______ _______ _______ _____ _____    ______ ____
ROOT
ATOM      1  N   LIG    1       -1.169  -4.146   4.519  0.00  0.00    -0.335 N 
ATOM      2  H   LIG    1       -1.843  -3.999   3.837  0.00  0.00    +0.147 HD
ENDROOT
BRANCH   1   3
ATOM      3  C   LIG    1       -1.383  -5.103   5.519  0.00  0.00    +0.070 A 
ATOM      4  C   LIG    1       -0.423  -5.310   6.498  0.00  0.00    +0.029 A 
ATOM      5  C   LIG    1       -0.635  -6.255   7.485  0.00  0.00    +0.040 A 
ATOM      6  C   LIG    1       -1.804  -6.996   7.498  0.00  0.00    +0.127 A 
ATOM      7  F   LIG    1       -2.006  -7.919   8.464  0.00  0.00    -0.205 F 
ATOM      8  C   LIG    1       -2.767  -6.793   6.524  0.00  0.00    +0.085 A 
ATOM      9  C   LIG    1       -2.562  -5.844   5.536  0.00  0.00    +0.144 A 
BRANCH   9  10
ATOM     10  O   LIG    1       -3.507  -5.643   4.578  0.00  0.00    -0.488 OA
BRANCH  10  11
ATOM     11  C   LIG    1       -4.686  -6.447   4.652  0.00  0.00    +0.257 C 
BRANCH  11  12
ATOM     12  C   LIG    1       -5.625  -6.081   3.501  0.00  0.00    +0.196 C 
BRANCH  12  13
ATOM     13  O   LIG    1       -5.011  -6.425   2.257  0.00  0.00    -0.392 OA
ATOM     14  H   LIG    1       -5.551  -6.221   1.482  0.00  0.00    +0.210 HD
ENDBRANCH  12  13
ENDBRANCH  11  12
ENDBRANCH  10  11
ENDBRANCH   9  10
ENDBRANCH   1   3
BRANCH   1  15
ATOM     15  C   LIG    1        0.071  -3.367   4.503  0.00  0.00    +0.157 C 
BRANCH  15  16
ATOM     16  C   LIG    1        0.052  -2.415   3.334  0.00  0.00    +0.066 A 
ATOM     17  C   LIG    1        0.034  -1.052   3.544  0.00  0.00    +0.095 A 
ATOM     18  C   LIG    1        0.016  -0.192   2.445  0.00  0.00    +0.259 A 
ATOM     19  O   LIG    1        0.001   1.017   2.614  0.00  0.00    -0.267 OA
ATOM     20  N   LIG    1        0.023  -0.707   1.181  0.00  0.00    -0.259 N 
ATOM     21  C   LIG    1        0.036  -2.063   1.052  0.00  0.00    +0.180 A 
ATOM     22  S   LIG    1        0.032  -2.382  -0.691  0.00  0.00    -0.057 S 
ATOM     23  C   LIG    1        0.006  -0.668  -1.140  0.00  0.00    +0.070 C 
ATOM     24  C   LIG    1        0.002  -0.004   0.002  0.00  0.00    +0.033 C 
ATOM     25  C   LIG    1       -0.018   1.503   0.010  0.00  0.00    +0.064 C 
ATOM     26  N   LIG    1        0.052  -2.878   2.090  0.00  0.00    -0.226 NA
ENDBRANCH  15  16
ENDBRANCH   1  15
TORSDOF 7
