REMARK  Name = ZINC000058177995
REMARK                            x       y       z     vdW  Elec       q    Type
REMARK                         _______ _______ _______ _____ _____    ______ ____
ROOT
ATOM      1  C   LIG    1        1.232  -2.088  -0.912  0.00  0.00    +0.061 A 
ATOM      2  C   LIG    1        0.661  -2.834   0.125  0.00  0.00    +0.016 A 
ATOM      3  C   LIG    1        0.514  -4.188   0.008  0.00  0.00    +0.016 A 
ATOM      4  C   LIG    1        0.937  -4.833  -1.152  0.00  0.00    +0.065 A 
ATOM      5  C   LIG    1        0.799  -6.290  -1.323  0.00  0.00    +0.262 A 
ATOM      6  O   LIG    1        0.309  -6.985  -0.453  0.00  0.00    -0.267 OA
ATOM      7  N   LIG    1        1.238  -6.825  -2.486  0.00  0.00    -0.294 N 
ATOM      8  C   LIG    1        1.783  -6.035  -3.449  0.00  0.00    +0.110 A 
ATOM      9  N   LIG    1        1.917  -4.750  -3.326  0.00  0.00    -0.234 NA
ATOM     10  C   LIG    1        2.255  -6.685  -4.724  0.00  0.00    +0.086 C 
ATOM     11  C   LIG    1        1.515  -4.095  -2.208  0.00  0.00    +0.079 A 
ATOM     12  C   LIG    1        1.655  -2.712  -2.080  0.00  0.00    +0.043 A 
ENDROOT
BRANCH   1  13
ATOM     13  C   LIG    1        1.382  -0.623  -0.767  0.00  0.00    +0.339 C 
ATOM     14  O   LIG    1        1.872   0.029  -1.666  0.00  0.00    -0.245 OA
BRANCH  13  15
ATOM     15  O   LIG    1        0.973  -0.013   0.362  0.00  0.00    -0.464 OA
ATOM     16  C   LIG    1        1.151   1.426   0.435  0.00  0.00    +0.280 C 
ENDBRANCH  13  15
ENDBRANCH   1  13
BRANCH   7  17
ATOM     17  C   LIG    1        1.126  -8.268  -2.709  0.00  0.00    +0.162 C 
BRANCH  17  18
ATOM     18  C   LIG    1       -0.162  -8.566  -3.480  0.00  0.00    +0.164 C 
BRANCH  18  19
ATOM     19  C   LIG    1       -0.278 -10.051  -3.710  0.00  0.00    -0.017 A 
ATOM     20  C   LIG    1       -0.836 -10.859  -2.738  0.00  0.00    +0.006 A 
ATOM     21  C   LIG    1       -0.942 -12.221  -2.948  0.00  0.00    +0.000 A 
ATOM     22  C   LIG    1       -0.491 -12.775  -4.132  0.00  0.00    +0.000 A 
ATOM     23  C   LIG    1        0.067 -11.966  -5.104  0.00  0.00    +0.000 A 
ATOM     24  C   LIG    1        0.170 -10.604  -4.896  0.00  0.00    +0.006 A 
ENDBRANCH  18  19
BRANCH  18  25
ATOM     25  O   LIG    1       -1.286  -8.112  -2.724  0.00  0.00    -0.385 OA
ATOM     26  H   LIG    1       -1.370  -8.529  -1.856  0.00  0.00    +0.210 HD
ENDBRANCH  18  25
ENDBRANCH  17  18
ENDBRANCH   7  17
TORSDOF 6
