REMARK  Name = ZINC000083855385
REMARK                            x       y       z     vdW  Elec       q    Type
REMARK                         _______ _______ _______ _____ _____    ______ ____
ROOT
ATOM      1  C   LIG    1       -0.303  -6.273  -3.351  0.00  0.00    -0.029 A 
ATOM      2  C   LIG    1        0.844  -7.023  -3.167  0.00  0.00    +0.005 A 
ATOM      3  C   LIG    1        0.753  -8.375  -2.892  0.00  0.00    +0.002 A 
ATOM      4  C   LIG    1       -0.485  -8.981  -2.800  0.00  0.00    +0.023 A 
ATOM      5  C   LIG    1       -1.639  -8.230  -2.983  0.00  0.00    +0.034 A 
ATOM      6  C   LIG    1       -1.544  -6.872  -3.254  0.00  0.00    +0.028 A 
ENDROOT
BRANCH   5   7
ATOM      7  N   LIG    1       -2.894  -8.841  -2.890  0.00  0.00    -0.283 N 
ATOM      8  C   LIG    1       -3.937  -8.162  -2.370  0.00  0.00    +0.246 C 
ATOM      9  O   LIG    1       -3.808  -6.996  -2.062  0.00  0.00    -0.273 OA
ATOM     10  H   LIG    1       -3.015  -9.752  -3.199  0.00  0.00    +0.155 HD
BRANCH   8  11
ATOM     11  C   LIG    1       -5.262  -8.852  -2.173  0.00  0.00    +0.204 C 
ATOM     12  C   LIG    1       -5.138  -9.956  -1.093  0.00  0.00    +0.043 C 
ATOM     13  C   LIG    1       -6.609 -10.054  -0.602  0.00  0.00    +0.031 C 
ATOM     14  C   LIG    1       -7.093  -8.593  -0.723  0.00  0.00    +0.161 C 
ATOM     15  O   LIG    1       -6.233  -7.927  -1.658  0.00  0.00    -0.367 OA
ENDBRANCH   8  11
ENDBRANCH   5   7
BRANCH   1  16
ATOM     16  C   LIG    1       -0.199  -4.800  -3.651  0.00  0.00    +0.139 C 
BRANCH  16  17
ATOM     17  N   LIG    1       -0.194  -4.045  -2.396  0.00  0.00    -0.309 N 
ATOM     18  H   LIG    1       -0.252  -4.513  -1.548  0.00  0.00    +0.149 HD
BRANCH  17  19
ATOM     19  C   LIG    1       -0.105  -2.664  -2.420  0.00  0.00    +0.217 A 
ATOM     20  N   LIG    1       -0.096  -1.998  -1.275  0.00  0.00    -0.200 NA
ATOM     21  C   LIG    1       -0.018  -0.671  -1.264  0.00  0.00    +0.126 A 
ATOM     22  C   LIG    1        0.067   0.012  -2.479  0.00  0.00    +0.063 A 
ATOM     23  C   LIG    1        0.060  -0.721  -3.649  0.00  0.00    +0.118 A 
ATOM     24  N   LIG    1       -0.026  -2.042  -3.587  0.00  0.00    -0.223 NA
BRANCH  21  25
ATOM     25  N   LIG    1       -0.014   0.023  -0.065  0.00  0.00    -0.321 N 
ATOM     26  C   LIG    1        0.013  -0.708   1.204  0.00  0.00    +0.130 C 
ATOM     27  C   LIG    1       -0.038   1.488  -0.067  0.00  0.00    +0.130 C 
ENDBRANCH  21  25
ENDBRANCH  17  19
ENDBRANCH  16  17
ENDBRANCH   1  16
TORSDOF 6
