REMARK  Name = ZINC000302780897
REMARK                            x       y       z     vdW  Elec       q    Type
REMARK                         _______ _______ _______ _____ _____    ______ ____
ROOT
ATOM      1  N   LIG    1        0.723  -6.156  -1.163  0.00  0.00    -0.311 N 
ATOM      2  C   LIG    1        0.095  -6.901  -0.061  0.00  0.00    +0.122 C 
ATOM      3  C   LIG    1       -0.856  -7.944  -0.659  0.00  0.00    +0.104 C 
ATOM      4  N   LIG    1       -0.126  -8.769  -1.630  0.00  0.00    -0.293 NA
ATOM      5  C   LIG    1        0.357  -7.962  -2.759  0.00  0.00    +0.104 C 
ATOM      6  C   LIG    1        1.353  -6.921  -2.250  0.00  0.00    +0.122 C 
ENDROOT
BRANCH   1   7
ATOM      7  C   LIG    1        0.718  -4.772  -1.178  0.00  0.00    +0.144 A 
ATOM      8  N   LIG    1       -0.025  -4.099  -0.305  0.00  0.00    -0.133 NA
ATOM      9  N   LIG    1       -0.056  -2.816  -0.279  0.00  0.00    -0.141 NA
ATOM     10  C   LIG    1        0.644  -2.076  -1.132  0.00  0.00    +0.170 A 
ATOM     11  C   LIG    1        1.456  -2.698  -2.089  0.00  0.00    +0.040 A 
ATOM     12  C   LIG    1        1.493  -4.080  -2.111  0.00  0.00    +0.048 A 
BRANCH  10  13
ATOM     13  C   LIG    1        0.570  -0.602  -1.067  0.00  0.00    +0.359 C 
ATOM     14  O   LIG    1        1.211   0.073  -1.848  0.00  0.00    -0.243 OA
BRANCH  13  15
ATOM     15  O   LIG    1       -0.208  -0.006  -0.143  0.00  0.00    -0.463 OA
ATOM     16  C   LIG    1       -0.232   1.445  -0.138  0.00  0.00    +0.280 C 
ENDBRANCH  13  15
ENDBRANCH  10  13
ENDBRANCH   1   7
BRANCH   4  17
ATOM     17  C   LIG    1       -0.954  -9.888  -2.098  0.00  0.00    +0.084 C 
ATOM     18  C   LIG    1       -1.348 -10.764  -0.908  0.00  0.00    +0.029 C 
BRANCH  17  19
ATOM     19  C   LIG    1       -0.172 -10.710  -3.090  0.00  0.00    -0.028 A 
ATOM     20  C   LIG    1        1.168 -10.966  -2.872  0.00  0.00    +0.005 A 
ATOM     21  C   LIG    1        1.886 -11.721  -3.781  0.00  0.00    +0.003 A 
ATOM     22  C   LIG    1        1.264 -12.220  -4.909  0.00  0.00    +0.038 A 
ATOM     23  C   LIG    1       -0.079 -11.964  -5.129  0.00  0.00    +0.124 A 
ATOM     24  F   LIG    1       -0.688 -12.452  -6.232  0.00  0.00    -0.205 F 
ATOM     25  C   LIG    1       -0.798 -11.213  -4.215  0.00  0.00    +0.043 A 
ENDBRANCH  17  19
ENDBRANCH   4  17
TORSDOF 5
