REMARK  Name = ZINC000012981122
REMARK                            x       y       z     vdW  Elec       q    Type
REMARK                         _______ _______ _______ _____ _____    ______ ____
ROOT
ATOM      1  N   LIG    1       -4.739  -4.477   0.032  0.00  0.00    -0.290 NA
ATOM      2  C   LIG    1       -3.289  -4.699  -0.047  0.00  0.00    +0.106 C 
ENDROOT
BRANCH   1   3
ATOM      3  C   LIG    1       -5.429  -5.675   0.531  0.00  0.00    +0.084 C 
ATOM      4  C   LIG    1       -5.130  -6.857  -0.393  0.00  0.00    +0.029 C 
BRANCH   3   5
ATOM      5  C   LIG    1       -6.915  -5.423   0.559  0.00  0.00    -0.030 A 
ATOM      6  C   LIG    1       -7.654  -5.780   1.672  0.00  0.00    +0.007 A 
ATOM      7  C   LIG    1       -9.014  -5.546   1.703  0.00  0.00    +0.028 A 
ATOM      8  C   LIG    1       -9.642  -4.962   0.612  0.00  0.00    +0.067 A 
ATOM      9  C   LIG    1       -8.899  -4.610  -0.507  0.00  0.00    +0.028 A 
ATOM     10  C   LIG    1       -7.537  -4.841  -0.530  0.00  0.00    +0.007 A 
BRANCH   8  11
ATOM     11  N   LIG    1      -11.024  -4.729   0.638  0.00  0.00    -0.220 N 
ATOM     12  C   LIG    1      -11.872  -5.009   1.647  0.00  0.00    +0.225 A 
ATOM     13  N   LIG    1      -13.073  -4.641   1.281  0.00  0.00    -0.222 NA
ATOM     14  C   LIG    1      -13.034  -4.123   0.054  0.00  0.00    +0.245 A 
ATOM     15  N   LIG    1      -11.800  -4.150  -0.380  0.00  0.00    -0.154 NA
ENDBRANCH   8  11
ENDBRANCH   3   5
ENDBRANCH   1   3
BRANCH   1  16
ATOM     16  C   LIG    1       -5.048  -3.307   0.865  0.00  0.00    +0.181 C 
BRANCH  16  17
ATOM     17  C   LIG    1       -4.530  -2.061   0.193  0.00  0.00    +0.232 C 
ATOM     18  N   LIG    1       -4.701  -0.859   0.778  0.00  0.00    -0.267 N 
ATOM     19  H   LIG    1       -5.157  -0.796   1.632  0.00  0.00    +0.156 HD
ATOM     20  O   LIG    1       -3.961  -2.141  -0.875  0.00  0.00    -0.274 OA
BRANCH  18  21
ATOM     21  C   LIG    1       -4.222   0.294   0.155  0.00  0.00    +0.168 A 
ATOM     22  N   LIG    1       -4.312   1.520   0.599  0.00  0.00    -0.063 NA
ATOM     23  O   LIG    1       -3.796   2.305  -0.162  0.00  0.00    -0.358 OA
ATOM     24  C   LIG    1       -3.291   1.691  -1.242  0.00  0.00    +0.136 A 
ATOM     25  C   LIG    1       -2.582   2.345  -2.401  0.00  0.00    +0.089 C 
ATOM     26  C   LIG    1       -3.538   0.370  -1.087  0.00  0.00    +0.091 A 
ENDBRANCH  18  21
ENDBRANCH  16  17
ENDBRANCH   1  16
TORSDOF 6
