REMARK  Name = ZINC000104526656
REMARK                            x       y       z     vdW  Elec       q    Type
REMARK                         _______ _______ _______ _____ _____    ______ ____
ROOT
ATOM      1  N   LIG    1        1.940  -3.655  -1.334  0.00  0.00    -0.290 NA
ATOM      2  C   LIG    1        2.803  -4.838  -1.462  0.00  0.00    +0.073 C 
ATOM      3  C   LIG    1        3.151  -5.055  -2.936  0.00  0.00    +0.103 C 
ATOM      4  N   LIG    1        1.913  -5.224  -3.709  0.00  0.00    -0.295 NA
ATOM      5  C   LIG    1        1.050  -4.041  -3.582  0.00  0.00    +0.100 C 
ATOM      6  C   LIG    1        0.702  -3.824  -2.107  0.00  0.00    +0.100 C 
ENDROOT
BRANCH   1   7
ATOM      7  C   LIG    1        1.645  -3.368   0.076  0.00  0.00    +0.159 C 
BRANCH   7   8
ATOM      8  C   LIG    1        0.676  -2.218   0.163  0.00  0.00    +0.119 A 
ATOM      9  O   LIG    1        1.004  -0.918   0.234  0.00  0.00    -0.464 OA
ATOM     10  C   LIG    1       -0.114  -0.177   0.302  0.00  0.00    +0.102 A 
ATOM     11  C   LIG    1       -0.171   1.326   0.397  0.00  0.00    +0.086 C 
ATOM     12  C   LIG    1       -1.175  -1.003   0.266  0.00  0.00    +0.044 A 
ATOM     13  C   LIG    1       -0.665  -2.319   0.176  0.00  0.00    +0.046 A 
ENDBRANCH   7   8
ENDBRANCH   1   7
BRANCH   2  14
ATOM     14  C   LIG    1        4.088  -4.622  -0.660  0.00  0.00    +0.048 C 
BRANCH  14  15
ATOM     15  C   LIG    1        4.944  -5.889  -0.717  0.00  0.00    +0.157 C 
BRANCH  15  16
ATOM     16  O   LIG    1        6.086  -5.731   0.128  0.00  0.00    -0.395 OA
ATOM     17  H   LIG    1        6.674  -6.498   0.141  0.00  0.00    +0.209 HD
ENDBRANCH  15  16
ENDBRANCH  14  15
ENDBRANCH   2  14
BRANCH   4  18
ATOM     18  C   LIG    1        2.208  -5.511  -5.120  0.00  0.00    +0.119 C 
BRANCH  18  19
ATOM     19  C   LIG    1        0.940  -5.914  -5.826  0.00  0.00    -0.033 A 
ATOM     20  C   LIG    1        0.566  -7.245  -5.868  0.00  0.00    +0.008 A 
ATOM     21  C   LIG    1       -0.596  -7.617  -6.515  0.00  0.00    +0.046 A 
ATOM     22  C   LIG    1       -1.389  -6.654  -7.123  0.00  0.00    +0.117 A 
ATOM     23  C   LIG    1       -1.012  -5.320  -7.079  0.00  0.00    +0.046 A 
ATOM     24  C   LIG    1        0.148  -4.952  -6.427  0.00  0.00    +0.008 A 
BRANCH  22  25
ATOM     25  O   LIG    1       -2.533  -7.018  -7.760  0.00  0.00    -0.507 OA
ATOM     26  H   LIG    1       -3.316  -7.020  -7.192  0.00  0.00    +0.292 HD
ENDBRANCH  22  25
ENDBRANCH  18  19
ENDBRANCH   4  18
TORSDOF 8
