REMARK  Name = ZINC000012981193
REMARK                            x       y       z     vdW  Elec       q    Type
REMARK                         _______ _______ _______ _____ _____    ______ ____
ROOT
ATOM      1  N   LIG    1       -1.157  -4.424   4.370  0.00  0.00    -0.296 N 
ATOM      2  C   LIG    1       -1.372  -4.855   5.629  0.00  0.00    +0.300 C 
ATOM      3  N   LIG    1       -2.525  -4.551   6.258  0.00  0.00    -0.296 N 
ATOM      4  H   LIG    1       -3.199  -4.021   5.804  0.00  0.00    +0.151 HD
ATOM      5  O   LIG    1       -0.527  -5.519   6.197  0.00  0.00    -0.253 OA
ATOM      6  H   LIG    1       -1.832  -3.894   3.917  0.00  0.00    +0.150 HD
ENDROOT
BRANCH   3   7
ATOM      7  C   LIG    1       -2.759  -5.020   7.626  0.00  0.00    +0.077 C 
ATOM      8  C   LIG    1       -2.128  -4.038   8.616  0.00  0.00    +0.041 C 
ATOM      9  C   LIG    1       -2.345  -4.550  10.044  0.00  0.00    +0.109 C 
ATOM     10  N   LIG    1       -3.781  -4.777  10.252  0.00  0.00    -0.301 N 
ATOM     11  C   LIG    1       -4.423  -4.211  11.293  0.00  0.00    +0.218 C 
ATOM     12  O   LIG    1       -3.799  -3.576  12.117  0.00  0.00    -0.275 OA
ATOM     13  C   LIG    1       -4.505  -5.634   9.303  0.00  0.00    +0.109 C 
ATOM     14  C   LIG    1       -4.265  -5.110   7.883  0.00  0.00    +0.041 C 
BRANCH  11  15
ATOM     15  C   LIG    1       -5.915  -4.367  11.434  0.00  0.00    +0.069 C 
ATOM     16  C   LIG    1       -6.308  -4.206  12.904  0.00  0.00    +0.017 C 
ATOM     17  C   LIG    1       -6.620  -3.297  10.598  0.00  0.00    +0.017 C 
ENDBRANCH  11  15
ENDBRANCH   3   7
BRANCH   1  18
ATOM     18  C   LIG    1        0.096  -4.755   3.687  0.00  0.00    +0.146 C 
BRANCH  18  19
ATOM     19  C   LIG    1        0.086  -4.149   2.282  0.00  0.00    +0.247 C 
BRANCH  19  20
ATOM     20  O   LIG    1        0.073  -2.723   2.378  0.00  0.00    -0.490 OA
BRANCH  20  21
ATOM     21  C   LIG    1        0.063  -2.026   1.212  0.00  0.00    +0.121 A 
ATOM     22  C   LIG    1        0.056  -0.639   1.231  0.00  0.00    +0.049 A 
ATOM     23  C   LIG    1        0.040   0.067   0.044  0.00  0.00    -0.047 A 
ATOM     24  C   LIG    1        0.027   1.574   0.065  0.00  0.00    +0.044 C 
ATOM     25  C   LIG    1        0.043  -0.607  -1.163  0.00  0.00    +0.003 A 
ATOM     26  C   LIG    1        0.055  -1.990  -1.185  0.00  0.00    +0.004 A 
ATOM     27  C   LIG    1        0.065  -2.700  -0.001  0.00  0.00    +0.045 A 
ENDBRANCH  20  21
ENDBRANCH  19  20
ENDBRANCH  18  19
ENDBRANCH   1  18
TORSDOF 6
