REMARK  Name = ZINC000012980135
REMARK                            x       y       z     vdW  Elec       q    Type
REMARK                         _______ _______ _______ _____ _____    ______ ____
ROOT
ATOM      1  N   LIG    1       -1.167  -4.465   4.367  0.00  0.00    -0.214 N 
ATOM      2  C   LIG    1       -1.388  -3.361   5.113  0.00  0.00    +0.310 C 
ATOM      3  C   LIG    1       -2.805  -3.479   5.590  0.00  0.00    +0.310 C 
ATOM      4  O   LIG    1       -3.411  -2.697   6.293  0.00  0.00    -0.264 OA
ATOM      5  N   LIG    1       -3.263  -4.639   5.073  0.00  0.00    -0.213 N 
ATOM      6  O   LIG    1       -0.605  -2.465   5.347  0.00  0.00    -0.264 OA
ATOM      7  C   LIG    1       -2.286  -5.208   4.348  0.00  0.00    +0.319 C 
ATOM      8  O   LIG    1       -2.398  -6.263   3.757  0.00  0.00    -0.252 OA
ENDROOT
BRANCH   5   9
ATOM      9  C   LIG    1       -4.609  -5.185   5.266  0.00  0.00    +0.153 C 
BRANCH   9  10
ATOM     10  C   LIG    1       -5.517  -4.679   4.175  0.00  0.00    -0.030 A 
ATOM     11  C   LIG    1       -6.216  -3.499   4.349  0.00  0.00    +0.005 A 
ATOM     12  C   LIG    1       -7.049  -3.035   3.349  0.00  0.00    +0.000 A 
ATOM     13  C   LIG    1       -7.184  -3.751   2.174  0.00  0.00    +0.000 A 
ATOM     14  C   LIG    1       -6.484  -4.931   1.999  0.00  0.00    +0.000 A 
ATOM     15  C   LIG    1       -5.648  -5.392   2.998  0.00  0.00    +0.005 A 
ENDBRANCH   9  10
ENDBRANCH   5   9
BRANCH   1  16
ATOM     16  C   LIG    1        0.086  -4.796   3.684  0.00  0.00    +0.159 C 
BRANCH  16  17
ATOM     17  C   LIG    1        0.071  -4.202   2.274  0.00  0.00    +0.248 C 
BRANCH  17  18
ATOM     18  O   LIG    1        0.051  -2.775   2.359  0.00  0.00    -0.490 OA
BRANCH  18  19
ATOM     19  C   LIG    1        0.036  -2.088   1.187  0.00  0.00    +0.121 A 
ATOM     20  C   LIG    1        0.023  -0.701   1.195  0.00  0.00    +0.049 A 
ATOM     21  C   LIG    1        0.002  -0.004   0.002  0.00  0.00    -0.047 A 
ATOM     22  C   LIG    1       -0.018   1.503   0.010  0.00  0.00    +0.044 C 
ATOM     23  C   LIG    1        0.006  -0.688  -1.199  0.00  0.00    +0.003 A 
ATOM     24  C   LIG    1        0.024  -2.071  -1.210  0.00  0.00    +0.004 A 
ATOM     25  C   LIG    1        0.040  -2.772  -0.020  0.00  0.00    +0.045 A 
ENDBRANCH  18  19
ENDBRANCH  17  18
ENDBRANCH  16  17
ENDBRANCH   1  16
TORSDOF 6
