REMARK  Name = ZINC000025841140
REMARK                            x       y       z     vdW  Elec       q    Type
REMARK                         _______ _______ _______ _____ _____    ______ ____
ROOT
ATOM      1  C   LIG    1       -1.017   0.592  -2.790  0.00  0.00    +0.246 C 
ATOM      2  O   LIG    1       -1.606   0.879  -1.766  0.00  0.00    -0.270 OA
ATOM      3  N   LIG    1       -1.552   0.908  -3.986  0.00  0.00    -0.311 N 
ATOM      4  H   LIG    1       -1.083   0.678  -4.803  0.00  0.00    +0.149 HD
ENDROOT
BRANCH   1   5
ATOM      5  C   LIG    1        0.285  -0.105  -2.724  0.00  0.00    +0.061 A 
ATOM      6  C   LIG    1        0.847  -0.424  -1.486  0.00  0.00    +0.100 A 
ATOM      7  C   LIG    1        2.062  -1.074  -1.431  0.00  0.00    +0.028 A 
ATOM      8  C   LIG    1        2.727  -1.405  -2.599  0.00  0.00    +0.002 A 
ATOM      9  C   LIG    1        2.178  -1.087  -3.828  0.00  0.00    +0.001 A 
ATOM     10  C   LIG    1        0.963  -0.437  -3.897  0.00  0.00    +0.015 A 
BRANCH   6  11
ATOM     11  S   LIG    1        0.002  -0.004   0.002  0.00  0.00    -0.005 S 
ATOM     12  O   LIG    1        0.845  -0.497   1.035  0.00  0.00    -0.170 OA
ATOM     13  C   LIG    1       -0.022   1.810   0.012  0.00  0.00    +0.200 C 
ATOM     14  O   LIG    1       -1.309  -0.519  -0.182  0.00  0.00    -0.170 OA
ENDBRANCH   6  11
ENDBRANCH   1   5
BRANCH   3  15
ATOM     15  C   LIG    1       -2.843   1.598  -4.052  0.00  0.00    +0.107 C 
BRANCH  15  16
ATOM     16  C   LIG    1       -3.219   1.837  -5.516  0.00  0.00    +0.047 C 
BRANCH  16  17
ATOM     17  C   LIG    1       -4.567   2.557  -5.584  0.00  0.00    +0.162 C 
BRANCH  17  18
ATOM     18  O   LIG    1       -4.919   2.780  -6.951  0.00  0.00    -0.375 OA
BRANCH  18  19
ATOM     19  C   LIG    1       -6.168   3.451  -7.128  0.00  0.00    +0.195 C 
BRANCH  19  20
ATOM     20  C   LIG    1       -6.437   3.633  -8.600  0.00  0.00    -0.022 A 
ATOM     21  C   LIG    1       -5.992   4.769  -9.249  0.00  0.00    +0.006 A 
ATOM     22  C   LIG    1       -6.239   4.936 -10.599  0.00  0.00    +0.000 A 
ATOM     23  C   LIG    1       -6.930   3.965 -11.300  0.00  0.00    +0.000 A 
ATOM     24  C   LIG    1       -7.374   2.828 -10.651  0.00  0.00    +0.000 A 
ATOM     25  C   LIG    1       -7.124   2.660  -9.302  0.00  0.00    +0.006 A 
ENDBRANCH  19  20
ENDBRANCH  18  19
ENDBRANCH  17  18
ENDBRANCH  16  17
ENDBRANCH  15  16
ENDBRANCH   3  15
TORSDOF 8
