REMARK  Name = ZINC000095994097
REMARK                            x       y       z     vdW  Elec       q    Type
REMARK                         _______ _______ _______ _____ _____    ______ ____
ROOT
ATOM      1  C   LIG    1        2.907   0.819  -4.739  0.00  0.00    +0.123 C 
ATOM      2  C   LIG    1        3.673  -0.508  -4.796  0.00  0.00    +0.026 C 
ATOM      3  C   LIG    1        5.127  -0.211  -5.170  0.00  0.00    +0.097 C 
ATOM      4  C   LIG    1        5.173   0.697  -6.365  0.00  0.00    +0.216 C 
ATOM      5  N   LIG    1        4.133   1.423  -6.778  0.00  0.00    -0.297 N 
ATOM      6  C   LIG    1        4.327   2.306  -7.931  0.00  0.00    +0.132 C 
ATOM      7  O   LIG    1        6.210   0.774  -6.988  0.00  0.00    -0.276 OA
ATOM      8  C   LIG    1        2.816   1.397  -6.152  0.00  0.00    +0.123 C 
ENDROOT
BRANCH   8   9
ATOM      9  C   LIG    1        2.268   2.799  -6.087  0.00  0.00    +0.011 A 
ATOM     10  C   LIG    1        2.995   3.954  -5.779  0.00  0.00    +0.139 A 
ATOM     11  N   LIG    1        2.179   4.975  -5.825  0.00  0.00    -0.180 NA
ATOM     12  N   LIG    1        0.903   4.501  -6.154  0.00  0.00    -0.274 N 
ATOM     13  C   LIG    1       -0.306   5.315  -6.303  0.00  0.00    +0.172 C 
ATOM     14  C   LIG    1        0.984   3.163  -6.310  0.00  0.00    +0.113 A 
ENDBRANCH   8   9
BRANCH   1  15
ATOM     15  C   LIG    1        1.520   0.580  -4.201  0.00  0.00    +0.313 C 
ATOM     16  O   LIG    1        0.555   0.850  -4.876  0.00  0.00    -0.250 OA
BRANCH  15  17
ATOM     17  O   LIG    1        1.356   0.067  -2.971  0.00  0.00    -0.459 OA
BRANCH  17  18
ATOM     18  C   LIG    1       -0.008  -0.137  -2.518  0.00  0.00    +0.275 C 
BRANCH  18  19
ATOM     19  C   LIG    1        0.006  -0.715  -1.126  0.00  0.00    +0.030 A 
ATOM     20  C   LIG    1        0.002  -0.004   0.002  0.00  0.00    -0.037 A 
ATOM     21  C   LIG    1        0.024  -0.755   1.165  0.00  0.00    +0.011 A 
ATOM     22  C   LIG    1        0.035  -2.076   0.981  0.00  0.00    +0.046 A 
ATOM     23  C   LIG    1       -0.018   1.503   0.010  0.00  0.00    +0.045 C 
ATOM     24  S   LIG    1        0.031  -2.431  -0.742  0.00  0.00    -0.098 S 
ENDBRANCH  18  19
ENDBRANCH  17  18
ENDBRANCH  15  17
ENDBRANCH   1  15
TORSDOF 5
