REMARK  Name = ZINC000001054829
REMARK                            x       y       z     vdW  Elec       q    Type
REMARK                         _______ _______ _______ _____ _____    ______ ____
ROOT
ATOM      1  O   LIG    1       -0.159   0.162   0.606  0.00  0.00    -0.269 OA
ATOM      2  C   LIG    1       -0.014   1.213   0.009  0.00  0.00    +0.253 C 
ATOM      3  N   LIG    1       -1.036   1.729  -0.703  0.00  0.00    -0.294 N 
ATOM      4  C   LIG    1       -2.368   1.111  -0.656  0.00  0.00    +0.127 C 
ATOM      5  C   LIG    1       -2.812   0.781  -2.082  0.00  0.00    +0.127 C 
ATOM      6  N   LIG    1       -2.611   1.969  -2.924  0.00  0.00    -0.296 N 
ATOM      7  C   LIG    1       -1.277   2.583  -2.976  0.00  0.00    +0.127 C 
ATOM      8  C   LIG    1       -3.632   2.485  -3.636  0.00  0.00    +0.245 C 
ATOM      9  O   LIG    1       -3.454   3.465  -4.328  0.00  0.00    -0.273 OA
ATOM     10  C   LIG    1       -0.835   2.917  -1.545  0.00  0.00    +0.127 C 
ENDROOT
BRANCH   2  11
ATOM     11  C   LIG    1        1.272   1.913   0.059  0.00  0.00    +0.075 A 
ATOM     12  C   LIG    1        2.492   1.318   0.155  0.00  0.00    +0.024 A 
ATOM     13  C   LIG    1        3.553   2.204   0.184  0.00  0.00    -0.036 A 
ATOM     14  C   LIG    1        5.006   1.760   0.289  0.00  0.00    +0.036 C 
ATOM     15  C   LIG    1        5.909   2.919  -0.136  0.00  0.00    +0.005 C 
ATOM     16  C   LIG    1        5.509   4.179   0.637  0.00  0.00    +0.005 C 
ATOM     17  C   LIG    1        4.153   4.670   0.122  0.00  0.00    +0.043 C 
ATOM     18  C   LIG    1        3.184   3.503   0.110  0.00  0.00    -0.006 A 
ATOM     19  S   LIG    1        1.487   3.655  -0.004  0.00  0.00    -0.088 S 
ENDBRANCH   2  11
BRANCH   8  20
ATOM     20  C   LIG    1       -4.995   1.844  -3.573  0.00  0.00    +0.204 C 
ATOM     21  C   LIG    1       -4.935   0.426  -4.182  0.00  0.00    +0.043 C 
ATOM     22  C   LIG    1       -6.280   0.343  -4.954  0.00  0.00    +0.031 C 
ATOM     23  C   LIG    1       -6.441   1.810  -5.425  0.00  0.00    +0.161 C 
ATOM     24  O   LIG    1       -5.928   2.609  -4.345  0.00  0.00    -0.367 OA
ENDBRANCH   8  20
TORSDOF 2
