REMARK  Name = ZINC000069615912
REMARK                            x       y       z     vdW  Elec       q    Type
REMARK                         _______ _______ _______ _____ _____    ______ ____
ROOT
ATOM      1  C   LIG    1        0.085  -3.313   1.479  0.00  0.00    +0.095 C 
ATOM      2  C   LIG    1        1.334  -4.123   1.124  0.00  0.00    +0.016 C 
ATOM      3  C   LIG    1        1.352  -5.419   1.938  0.00  0.00    +0.020 C 
ATOM      4  C   LIG    1        0.117  -6.255   1.586  0.00  0.00    +0.108 C 
ATOM      5  N   LIG    1       -1.084  -5.433   1.787  0.00  0.00    -0.293 N 
ATOM      6  C   LIG    1       -2.092  -5.869   2.567  0.00  0.00    +0.302 C 
ATOM      7  O   LIG    1       -2.053  -6.986   3.041  0.00  0.00    -0.265 OA
ATOM      8  C   LIG    1       -1.165  -4.125   1.123  0.00  0.00    +0.121 C 
ENDROOT
BRANCH   1   9
ATOM      9  C   LIG    1        0.085  -2.022   0.701  0.00  0.00    +0.232 A 
ATOM     10  N   LIG    1        0.089  -0.809   1.200  0.00  0.00    -0.196 NA
ATOM     11  C   LIG    1        0.084   0.018   0.140  0.00  0.00    +0.169 A 
ATOM     12  C   LIG    1        0.084   1.525   0.185  0.00  0.00    +0.091 C 
ATOM     13  N   LIG    1        0.085  -0.719  -0.930  0.00  0.00    -0.062 NA
ATOM     14  O   LIG    1        0.085  -1.895  -0.629  0.00  0.00    -0.338 OA
ENDBRANCH   1   9
BRANCH   6  15
ATOM     15  C   LIG    1       -3.259  -4.979   2.848  0.00  0.00    +0.303 C 
ATOM     16  N   LIG    1       -4.206  -5.367   3.725  0.00  0.00    -0.278 N 
ATOM     17  H   LIG    1       -4.090  -6.184   4.235  0.00  0.00    +0.155 HD
ATOM     18  O   LIG    1       -3.353  -3.907   2.287  0.00  0.00    -0.265 OA
BRANCH  16  19
ATOM     19  C   LIG    1       -5.355  -4.591   3.899  0.00  0.00    +0.037 A 
ATOM     20  C   LIG    1       -6.068  -4.661   5.090  0.00  0.00    -0.029 A 
ATOM     21  C   LIG    1       -5.599  -5.569   6.198  0.00  0.00    +0.045 C 
ATOM     22  C   LIG    1       -7.200  -3.889   5.261  0.00  0.00    +0.008 A 
ATOM     23  C   LIG    1       -7.631  -3.056   4.245  0.00  0.00    -0.050 A 
ATOM     24  C   LIG    1       -8.871  -2.220   4.433  0.00  0.00    +0.044 C 
ATOM     25  C   LIG    1       -6.928  -2.989   3.056  0.00  0.00    +0.005 A 
ATOM     26  C   LIG    1       -5.791  -3.754   2.880  0.00  0.00    +0.024 A 
ENDBRANCH  16  19
ENDBRANCH   6  15
TORSDOF 3
