REMARK  Name = ZINC000042652063
REMARK                            x       y       z     vdW  Elec       q    Type
REMARK                         _______ _______ _______ _____ _____    ______ ____
ROOT
ATOM      1  N   LIG    1        1.871  -2.844   4.809  0.00  0.00    -0.289 NA
ATOM      2  C   LIG    1        1.620  -3.430   6.133  0.00  0.00    +0.100 C 
ATOM      3  C   LIG    1        2.516  -4.656   6.324  0.00  0.00    +0.100 C 
ATOM      4  N   LIG    1        2.241  -5.631   5.259  0.00  0.00    -0.296 NA
ATOM      5  C   LIG    1        2.492  -5.045   3.935  0.00  0.00    +0.100 C 
ATOM      6  C   LIG    1        1.597  -3.819   3.744  0.00  0.00    +0.100 C 
ENDROOT
BRANCH   1   7
ATOM      7  C   LIG    1        1.084  -1.619   4.617  0.00  0.00    +0.143 C 
ATOM      8  C   LIG    1        1.634  -0.513   5.519  0.00  0.00    +0.034 C 
BRANCH   7   9
ATOM      9  C   LIG    1        1.174  -1.184   3.177  0.00  0.00    +0.244 A 
ATOM     10  O   LIG    1        2.281  -1.130   2.430  0.00  0.00    -0.336 OA
ATOM     11  N   LIG    1        2.006  -0.738   1.315  0.00  0.00    -0.061 NA
ATOM     12  C   LIG    1        0.731  -0.503   1.223  0.00  0.00    +0.172 A 
ATOM     13  N   LIG    1        0.182  -0.783   2.419  0.00  0.00    -0.195 NA
BRANCH  12  14
ATOM     14  C   LIG    1        0.002  -0.004   0.002  0.00  0.00    +0.076 C 
ATOM     15  C   LIG    1       -0.019   1.526   0.010  0.00  0.00    +0.012 C 
ENDBRANCH  12  14
ENDBRANCH   7   9
ENDBRANCH   1   7
BRANCH   4  16
ATOM     16  C   LIG    1        3.028  -6.856   5.451  0.00  0.00    +0.119 C 
BRANCH  16  17
ATOM     17  C   LIG    1        2.568  -7.558   6.702  0.00  0.00    -0.033 A 
ATOM     18  C   LIG    1        3.159  -7.257   7.917  0.00  0.00    +0.006 A 
ATOM     19  C   LIG    1        2.743  -7.896   9.067  0.00  0.00    +0.019 A 
ATOM     20  C   LIG    1        1.724  -8.848   9.003  0.00  0.00    +0.052 A 
ATOM     21  C   LIG    1        1.132  -9.147   7.774  0.00  0.00    +0.019 A 
ATOM     22  C   LIG    1        1.554  -8.496   6.633  0.00  0.00    +0.006 A 
BRANCH  20  23
ATOM     23  C   LIG    1        1.287  -9.515  10.192  0.00  0.00    +0.099 C 
ATOM     24  N   LIG    1        0.940 -10.045  11.136  0.00  0.00    -0.191 NA
ENDBRANCH  20  23
ENDBRANCH  16  17
ENDBRANCH   4  16
TORSDOF 6
