REMARK  Name = ZINC000082138475
REMARK                            x       y       z     vdW  Elec       q    Type
REMARK                         _______ _______ _______ _____ _____    ______ ____
ROOT
ATOM      1  C   LIG    1        2.324  -5.271   1.547  0.00  0.00    +0.250 C 
ATOM      2  O   LIG    1        1.841  -6.386   1.582  0.00  0.00    -0.270 OA
ATOM      3  N   LIG    1        3.648  -5.116   1.351  0.00  0.00    -0.291 N 
ATOM      4  C   LIG    1        4.246  -3.779   1.408  0.00  0.00    +0.133 C 
ENDROOT
BRANCH   1   5
ATOM      5  C   LIG    1        1.461  -4.088   1.720  0.00  0.00    +0.077 A 
ATOM      6  C   LIG    1        1.787  -2.927   2.391  0.00  0.00    +0.121 A 
ATOM      7  N   LIG    1        0.727  -2.106   2.314  0.00  0.00    -0.270 N 
ATOM      8  N   LIG    1       -0.283  -2.753   1.592  0.00  0.00    -0.176 NA
ATOM      9  C   LIG    1        0.145  -3.931   1.229  0.00  0.00    +0.072 A 
ATOM     10  C   LIG    1       -0.630  -4.948   0.432  0.00  0.00    +0.068 C 
BRANCH   7  11
ATOM     11  C   LIG    1        0.639  -0.763   2.893  0.00  0.00    +0.143 C 
BRANCH  11  12
ATOM     12  C   LIG    1        0.261   0.239   1.800  0.00  0.00    +0.020 C 
ATOM     13  C   LIG    1        0.170   1.642   2.405  0.00  0.00    +0.005 C 
ENDBRANCH  11  12
ENDBRANCH   7  11
ENDBRANCH   1   5
BRANCH   3  14
ATOM     14  C   LIG    1        4.490  -6.284   1.080  0.00  0.00    +0.206 C 
BRANCH  14  15
ATOM     15  C   LIG    1        4.553  -6.524  -0.407  0.00  0.00    +0.245 A 
ATOM     16  O   LIG    1        3.723  -7.288  -1.123  0.00  0.00    -0.336 OA
ATOM     17  N   LIG    1        4.045  -7.267  -2.293  0.00  0.00    -0.054 NA
ATOM     18  C   LIG    1        5.099  -6.512  -2.455  0.00  0.00    +0.220 A 
ATOM     19  N   LIG    1        5.434  -6.027  -1.238  0.00  0.00    -0.189 NA
BRANCH  18  20
ATOM     20  C   LIG    1        5.799  -6.238  -3.736  0.00  0.00    +0.111 A 
ATOM     21  N   LIG    1        6.863  -5.447  -3.748  0.00  0.00    -0.252 NA
ATOM     22  C   LIG    1        7.516  -5.184  -4.861  0.00  0.00    +0.111 A 
ATOM     23  C   LIG    1        7.103  -5.718  -6.069  0.00  0.00    +0.020 A 
ATOM     24  C   LIG    1        5.991  -6.545  -6.102  0.00  0.00    +0.004 A 
ATOM     25  C   LIG    1        5.328  -6.810  -4.915  0.00  0.00    +0.031 A 
ENDBRANCH  18  20
ENDBRANCH  14  15
ENDBRANCH   3  14
TORSDOF 6
