REMARK  Name = ZINC000025692543
REMARK                            x       y       z     vdW  Elec       q    Type
REMARK                         _______ _______ _______ _____ _____    ______ ____
ROOT
ATOM      1  C   LIG    1       -4.862  -3.287   2.503  0.00  0.00    +0.100 C 
ATOM      2  C   LIG    1       -4.316  -3.987   3.749  0.00  0.00    +0.033 C 
ENDROOT
BRANCH   1   3
ATOM      3  C   LIG    1       -6.243  -3.808   2.199  0.00  0.00    -0.027 A 
ATOM      4  C   LIG    1       -7.355  -3.078   2.575  0.00  0.00    +0.007 A 
ATOM      5  C   LIG    1       -8.622  -3.551   2.293  0.00  0.00    +0.028 A 
ATOM      6  C   LIG    1       -8.778  -4.766   1.640  0.00  0.00    +0.067 A 
ATOM      7  C   LIG    1       -7.660  -5.500   1.269  0.00  0.00    +0.028 A 
ATOM      8  C   LIG    1       -6.395  -5.019   1.549  0.00  0.00    +0.007 A 
BRANCH   6   9
ATOM      9  N   LIG    1      -10.062  -5.252   1.357  0.00  0.00    -0.220 N 
ATOM     10  C   LIG    1      -11.234  -4.654   1.649  0.00  0.00    +0.225 A 
ATOM     11  N   LIG    1      -12.200  -5.426   1.221  0.00  0.00    -0.222 NA
ATOM     12  C   LIG    1      -11.689  -6.519   0.654  0.00  0.00    +0.245 A 
ATOM     13  N   LIG    1      -10.384  -6.455   0.708  0.00  0.00    -0.154 NA
ENDBRANCH   6   9
ENDBRANCH   1   3
BRANCH   1  14
ATOM     14  N   LIG    1       -3.978  -3.552   1.366  0.00  0.00    -0.308 N 
ATOM     15  C   LIG    1       -2.891  -2.782   1.163  0.00  0.00    +0.219 C 
ATOM     16  O   LIG    1       -2.644  -1.869   1.923  0.00  0.00    -0.275 OA
ATOM     17  H   LIG    1       -4.176  -4.282   0.758  0.00  0.00    +0.149 HD
BRANCH  15  18
ATOM     18  C   LIG    1       -1.981  -3.055  -0.007  0.00  0.00    +0.151 C 
BRANCH  18  19
ATOM     19  C   LIG    1       -0.850  -2.060  -0.006  0.00  0.00    +0.057 A 
ATOM     20  N   LIG    1       -1.046  -0.757   0.003  0.00  0.00    -0.249 NA
ATOM     21  C   LIG    1        0.002  -0.004   0.002  0.00  0.00    +0.076 A 
ATOM     22  C   LIG    1       -0.018   1.503   0.010  0.00  0.00    +0.073 C 
ATOM     23  S   LIG    1        1.417  -0.964  -0.017  0.00  0.00    -0.081 S 
ATOM     24  C   LIG    1        0.436  -2.427  -0.015  0.00  0.00    +0.070 A 
ENDBRANCH  18  19
ENDBRANCH  15  18
ENDBRANCH   1  14
TORSDOF 5
