REMARK  Name = ZINC000058191693
REMARK                            x       y       z     vdW  Elec       q    Type
REMARK                         _______ _______ _______ _____ _____    ______ ____
ROOT
ATOM      1  N   LIG    1       -1.385   0.925   3.326  0.00  0.00    -0.292 N 
ATOM      2  C   LIG    1       -2.585   1.364   3.754  0.00  0.00    +0.300 C 
ATOM      3  N   LIG    1       -2.720   2.628   4.201  0.00  0.00    -0.295 N 
ATOM      4  H   LIG    1       -1.953   3.222   4.214  0.00  0.00    +0.151 HD
ATOM      5  O   LIG    1       -3.546   0.619   3.738  0.00  0.00    -0.253 OA
ATOM      6  H   LIG    1       -0.618   1.519   3.339  0.00  0.00    +0.151 HD
ENDROOT
BRANCH   3   7
ATOM      7  C   LIG    1       -4.024   3.105   4.666  0.00  0.00    +0.141 C 
BRANCH   7   8
ATOM      8  C   LIG    1       -3.905   4.541   5.109  0.00  0.00    -0.030 A 
ATOM      9  C   LIG    1       -3.581   4.830   6.427  0.00  0.00    +0.007 A 
ATOM     10  C   LIG    1       -3.467   6.136   6.852  0.00  0.00    +0.026 A 
ATOM     11  C   LIG    1       -3.679   7.176   5.954  0.00  0.00    +0.047 A 
ATOM     12  N   LIG    1       -3.642   8.548   6.065  0.00  0.00    -0.358 N 
ATOM     13  H   LIG    1       -3.440   9.036   6.879  0.00  0.00    +0.166 HD
ATOM     14  C   LIG    1       -3.933   9.121   4.857  0.00  0.00    +0.017 A 
ATOM     15  C   LIG    1       -3.986  10.604   4.594  0.00  0.00    +0.063 C 
ATOM     16  C   LIG    1       -4.164   8.167   3.942  0.00  0.00    -0.022 A 
ATOM     17  C   LIG    1       -4.516   8.382   2.492  0.00  0.00    +0.046 C 
ATOM     18  C   LIG    1       -4.008   6.877   4.618  0.00  0.00    +0.003 A 
ATOM     19  C   LIG    1       -4.112   5.547   4.208  0.00  0.00    +0.015 A 
ENDBRANCH   7   8
ENDBRANCH   3   7
BRANCH   1  20
ATOM     20  C   LIG    1       -1.238  -0.450   2.841  0.00  0.00    +0.182 C 
BRANCH  20  21
ATOM     21  C   LIG    1        0.191  -0.686   2.425  0.00  0.00    +0.151 A 
ATOM     22  N   LIG    1        1.156  -1.126   3.186  0.00  0.00    -0.133 NA
ATOM     23  N   LIG    1        2.243  -1.207   2.504  0.00  0.00    -0.138 NA
ATOM     24  C   LIG    1        2.020  -0.827   1.275  0.00  0.00    +0.225 A 
ATOM     25  N   LIG    1        0.711  -0.489   1.189  0.00  0.00    -0.316 N 
BRANCH  25  26
ATOM     26  C   LIG    1        0.002  -0.004   0.002  0.00  0.00    +0.121 C 
ATOM     27  C   LIG    1       -0.019   1.526   0.010  0.00  0.00    +0.027 C 
ENDBRANCH  25  26
ENDBRANCH  20  21
ENDBRANCH   1  20
TORSDOF 5
