REMARK  Name = ZINC000095993501
REMARK                            x       y       z     vdW  Elec       q    Type
REMARK                         _______ _______ _______ _____ _____    ______ ____
ROOT
ATOM      1  O   LIG    1        0.075  -0.001   0.005  0.00  0.00    -0.268 OA
ATOM      2  C   LIG    1       -0.014   1.211   0.009  0.00  0.00    +0.269 C 
ATOM      3  N   LIG    1       -1.228   1.797   0.041  0.00  0.00    -0.291 N 
ATOM      4  C   LIG    1       -2.460   1.000   0.161  0.00  0.00    +0.114 C 
ATOM      5  C   LIG    1       -3.125   1.357   1.490  0.00  0.00    +0.074 C 
ATOM      6  C   LIG    1       -3.193   2.851   1.671  0.00  0.00    +0.048 A 
ATOM      7  N   LIG    1       -4.080   3.322   2.539  0.00  0.00    -0.257 NA
ATOM      8  C   LIG    1       -4.216   4.608   2.781  0.00  0.00    +0.143 A 
ATOM      9  C   LIG    1       -3.426   5.535   2.129  0.00  0.00    +0.144 A 
ATOM     10  C   LIG    1       -2.490   5.087   1.212  0.00  0.00    +0.041 A 
ATOM     11  C   LIG    1       -2.380   3.720   0.980  0.00  0.00    -0.007 A 
ATOM     12  C   LIG    1       -1.374   3.255  -0.035  0.00  0.00    +0.145 C 
ENDROOT
BRANCH   2  13
ATOM     13  C   LIG    1        1.212   2.045  -0.029  0.00  0.00    +0.168 A 
ATOM     14  C   LIG    1        2.551   1.590   0.055  0.00  0.00    +0.089 A 
ATOM     15  C   LIG    1        3.293   2.741  -0.030  0.00  0.00    +0.203 A 
ATOM     16  O   LIG    1        2.411   3.751  -0.143  0.00  0.00    -0.351 OA
ATOM     17  N   LIG    1        1.270   3.351  -0.141  0.00  0.00    -0.073 NA
BRANCH  15  18
ATOM     18  C   LIG    1        4.759   2.850   0.003  0.00  0.00    +0.172 A 
ATOM     19  O   LIG    1        5.626   1.824   0.118  0.00  0.00    -0.460 OA
ATOM     20  C   LIG    1        6.881   2.299   0.108  0.00  0.00    +0.196 A 
ATOM     21  C   LIG    1        6.835   3.643  -0.004  0.00  0.00    +0.042 A 
ATOM     22  C   LIG    1        5.478   4.005  -0.072  0.00  0.00    +0.053 A 
ENDBRANCH  15  18
ENDBRANCH   2  13
BRANCH   9  23
ATOM     23  N   LIG    1       -3.576   6.981   2.407  0.00  0.00    +0.058 N 
ATOM     24  O   LIG    1       -4.403   7.363   3.216  0.00  0.00    -0.126 OA
ATOM     25  O   LIG    1       -2.874   7.789   1.827  0.00  0.00    -0.126 OA
ENDBRANCH   9  23
TORSDOF 3
