REMARK  Name = ZINC000025694888
REMARK                            x       y       z     vdW  Elec       q    Type
REMARK                         _______ _______ _______ _____ _____    ______ ____
ROOT
ATOM      1  N   LIG    1        3.271   6.210  -0.563  0.00  0.00    -0.216 N 
ATOM      2  H   LIG    1        3.794   5.991  -1.351  0.00  0.00    +0.174 HD
ENDROOT
BRANCH   1   3
ATOM      3  C   LIG    1        2.147   5.443  -0.235  0.00  0.00    +0.050 A 
ATOM      4  C   LIG    1        0.967   6.070   0.143  0.00  0.00    +0.028 A 
ATOM      5  C   LIG    1       -0.146   5.316   0.468  0.00  0.00    +0.049 A 
ATOM      6  C   LIG    1       -0.085   3.935   0.419  0.00  0.00    +0.142 A 
ATOM      7  O   LIG    1       -1.173   3.182   0.736  0.00  0.00    -0.481 OA
ATOM      8  C   LIG    1       -1.328   1.948   0.032  0.00  0.00    +0.325 C 
ATOM      9  C   LIG    1       -0.014   1.209   0.009  0.00  0.00    +0.255 C 
ATOM     10  O   LIG    1        0.002  -0.004   0.002  0.00  0.00    -0.272 OA
ATOM     11  N   LIG    1        1.145   1.903   0.001  0.00  0.00    -0.280 N 
ATOM     12  H   LIG    1        1.996   1.439  -0.033  0.00  0.00    +0.155 HD
ATOM     13  C   LIG    1        1.099   3.303   0.040  0.00  0.00    +0.077 A 
ATOM     14  C   LIG    1        2.213   4.057  -0.286  0.00  0.00    +0.051 A 
ENDBRANCH   1   3
BRANCH   1  15
ATOM     15  S   LIG    1        3.709   7.489   0.393  0.00  0.00    +0.072 S 
ATOM     16  O   LIG    1        2.529   8.251   0.608  0.00  0.00    -0.150 OA
ATOM     17  O   LIG    1        4.891   8.032  -0.180  0.00  0.00    -0.150 OA
BRANCH  15  18
ATOM     18  C   LIG    1        4.172   6.834   1.962  0.00  0.00    +0.109 A 
ATOM     19  C   LIG    1        3.221   6.677   2.953  0.00  0.00    +0.029 A 
ATOM     20  C   LIG    1        3.586   6.162   4.182  0.00  0.00    +0.006 A 
ATOM     21  C   LIG    1        4.901   5.804   4.425  0.00  0.00    -0.044 A 
ATOM     22  C   LIG    1        5.548   5.228   5.666  0.00  0.00    +0.036 C 
ATOM     23  C   LIG    1        6.894   4.644   5.187  0.00  0.00    +0.009 C 
ATOM     24  C   LIG    1        7.202   5.502   3.941  0.00  0.00    +0.036 C 
ATOM     25  C   LIG    1        5.852   5.961   3.433  0.00  0.00    -0.042 A 
ATOM     26  C   LIG    1        5.483   6.472   2.200  0.00  0.00    +0.032 A 
ENDBRANCH  15  18
ENDBRANCH   1  15
TORSDOF 3
