REMARK  Name = ZINC000082238078
REMARK                            x       y       z     vdW  Elec       q    Type
REMARK                         _______ _______ _______ _____ _____    ______ ____
ROOT
ATOM      1  C   LIG    1        2.336   1.494   0.868  0.00  0.00    +0.059 A 
ATOM      2  C   LIG    1        2.385   0.157   1.235  0.00  0.00    +0.025 A 
ATOM      3  C   LIG    1        3.581  -0.534   1.170  0.00  0.00    +0.005 A 
ATOM      4  C   LIG    1        4.732   0.101   0.743  0.00  0.00    +0.048 A 
ATOM      5  C   LIG    1        4.695   1.439   0.374  0.00  0.00    +0.144 A 
ATOM      6  O   LIG    1        5.834   2.054  -0.040  0.00  0.00    -0.488 OA
ATOM      7  C   LIG    1        5.707   3.251  -0.807  0.00  0.00    +0.248 C 
ATOM      8  C   LIG    1        4.731   4.198  -0.096  0.00  0.00    +0.155 C 
ATOM      9  N   LIG    1        3.449   3.487   0.050  0.00  0.00    -0.256 N 
ATOM     10  C   LIG    1        2.275   4.112  -0.173  0.00  0.00    +0.324 C 
ATOM     11  O   LIG    1        1.269   3.463  -0.364  0.00  0.00    -0.265 OA
ATOM     12  N   LIG    1        1.126   2.197   0.932  0.00  0.00    -0.276 NA
ATOM     13  H   LIG    1        0.454   2.069   0.245  0.00  0.00    +0.155 HD
ATOM     14  C   LIG    1        3.492   2.133   0.429  0.00  0.00    +0.100 A 
ENDROOT
BRANCH  10  15
ATOM     15  C   LIG    1        2.214   5.618  -0.186  0.00  0.00    +0.470 C 
ATOM     16  F   LIG    1        2.630   6.112   1.056  0.00  0.00    -0.162 F 
ATOM     17  F   LIG    1        0.900   6.029  -0.435  0.00  0.00    -0.162 F 
ATOM     18  F   LIG    1        3.055   6.111  -1.189  0.00  0.00    -0.162 F 
ENDBRANCH  10  15
BRANCH  12  19
ATOM     19  C   LIG    1        0.895   3.050   1.950  0.00  0.00    +0.322 C 
ATOM     20  O   LIG    1        1.709   3.164   2.842  0.00  0.00    -0.266 OA
BRANCH  19  21
ATOM     21  C   LIG    1       -0.376   3.858   1.982  0.00  0.00    +0.470 C 
ATOM     22  F   LIG    1       -0.391   4.660   3.129  0.00  0.00    -0.162 F 
ATOM     23  F   LIG    1       -1.477   2.995   2.002  0.00  0.00    -0.162 F 
ATOM     24  F   LIG    1       -0.442   4.671   0.845  0.00  0.00    -0.162 F 
ENDBRANCH  19  21
ENDBRANCH  12  19
TORSDOF 3
