REMARK  Name = ZINC000042372272
REMARK                            x       y       z     vdW  Elec       q    Type
REMARK                         _______ _______ _______ _____ _____    ______ ____
ROOT
ATOM      1  C   LIG    1        0.046  -2.828  -0.035  0.00  0.00    +0.187 C 
ENDROOT
BRANCH   1   2
ATOM      2  N   LIG    1       -1.403  -2.902  -0.234  0.00  0.00    -0.208 N 
ATOM      3  N   LIG    1       -2.356  -2.014   0.283  0.00  0.00    -0.148 NA
ATOM      4  C   LIG    1       -3.541  -2.416  -0.115  0.00  0.00    +0.162 A 
ATOM      5  C   LIG    1       -4.843  -1.900   0.108  0.00  0.00    +0.049 A 
ATOM      6  C   LIG    1       -5.910  -2.533  -0.437  0.00  0.00    +0.005 A 
ATOM      7  C   LIG    1       -5.715  -3.691  -1.218  0.00  0.00    +0.018 A 
ATOM      8  C   LIG    1       -4.479  -4.176  -1.427  0.00  0.00    +0.098 A 
ATOM      9  N   LIG    1       -3.380  -3.553  -0.885  0.00  0.00    -0.251 N 
ATOM     10  C   LIG    1       -2.063  -3.834  -0.952  0.00  0.00    +0.351 A 
ATOM     11  O   LIG    1       -1.558  -4.766  -1.554  0.00  0.00    -0.244 OA
ENDBRANCH   1   2
BRANCH   1  12
ATOM     12  C   LIG    1        0.661  -1.992  -1.128  0.00  0.00    +0.017 A 
ATOM     13  C   LIG    1        0.606  -0.607  -1.056  0.00  0.00    +0.125 A 
ATOM     14  C   LIG    1        1.173   0.161  -2.062  0.00  0.00    +0.047 A 
ATOM     15  C   LIG    1        1.786  -0.454  -3.137  0.00  0.00    +0.019 A 
ATOM     16  C   LIG    1        1.835  -1.835  -3.209  0.00  0.00    +0.018 A 
ATOM     17 BR   LIG    1        2.675  -2.674  -4.681  0.00  0.00    -0.050 Br
ATOM     18  C   LIG    1        1.270  -2.603  -2.206  0.00  0.00    +0.024 A 
BRANCH  13  19
ATOM     19  O   LIG    1        0.002  -0.004   0.002  0.00  0.00    -0.495 OA
ATOM     20  C   LIG    1       -0.017   1.425   0.010  0.00  0.00    +0.277 C 
ENDBRANCH  13  19
ENDBRANCH   1  12
TORSDOF 3
