REMARK  Name = ZINC000083830283
REMARK                            x       y       z     vdW  Elec       q    Type
REMARK                         _______ _______ _______ _____ _____    ______ ____
ROOT
ATOM      1  N   LIG    1        6.158  -0.529  -2.544  0.00  0.00    -0.299 N 
ATOM      2  C   LIG    1        7.077   0.415  -2.260  0.00  0.00    +0.302 C 
ATOM      3  O   LIG    1        6.724   1.505  -1.855  0.00  0.00    -0.253 OA
ATOM      4  N   LIG    1        8.388   0.149  -2.425  0.00  0.00    -0.285 N 
ATOM      5  C   LIG    1        9.495   1.085  -2.154  0.00  0.00    +0.113 C 
ATOM      6  C   LIG    1       10.662   0.590  -3.040  0.00  0.00    +0.012 C 
ATOM      7  C   LIG    1       10.484  -0.950  -2.962  0.00  0.00    +0.024 C 
ATOM      8  C   LIG    1        8.951  -1.119  -2.911  0.00  0.00    +0.109 C 
ATOM      9  H   LIG    1        6.439  -1.399  -2.867  0.00  0.00    +0.150 HD
ENDROOT
BRANCH   6  10
ATOM     10  C   LIG    1       12.013   1.016  -2.462  0.00  0.00    +0.043 C 
BRANCH  10  11
ATOM     11  C   LIG    1       12.202   2.497  -2.666  0.00  0.00    -0.010 A 
ATOM     12  C   LIG    1       11.814   3.506  -1.779  0.00  0.00    +0.138 A 
ATOM     13  N   LIG    1       12.148   4.659  -2.300  0.00  0.00    -0.180 NA
ATOM     14  N   LIG    1       12.750   4.420  -3.541  0.00  0.00    -0.274 N 
ATOM     15  C   LIG    1       13.266   5.439  -4.459  0.00  0.00    +0.172 C 
ATOM     16  C   LIG    1       12.771   3.086  -3.743  0.00  0.00    +0.111 A 
ENDBRANCH  10  11
ENDBRANCH   6  10
BRANCH   1  17
ATOM     17  C   LIG    1        4.732  -0.240  -2.365  0.00  0.00    +0.112 C 
BRANCH  17  18
ATOM     18  C   LIG    1        3.910  -1.470  -2.756  0.00  0.00    +0.074 C 
BRANCH  18  19
ATOM     19  C   LIG    1        2.444  -1.173  -2.571  0.00  0.00    +0.050 A 
ATOM     20  N   LIG    1        1.982  -0.752  -1.413  0.00  0.00    -0.249 NA
ATOM     21  C   LIG    1        0.707  -0.490  -1.238  0.00  0.00    +0.078 A 
ATOM     22  S   LIG    1        0.042  -0.855  -2.800  0.00  0.00    -0.080 S 
ATOM     23  C   LIG    1        1.568  -1.335  -3.595  0.00  0.00    +0.070 A 
BRANCH  21  24
ATOM     24  C   LIG    1        0.002  -0.004   0.002  0.00  0.00    +0.059 C 
ATOM     25  C   LIG    1       -0.019   1.526   0.010  0.00  0.00    +0.011 C 
ENDBRANCH  21  24
ENDBRANCH  18  19
ENDBRANCH  17  18
ENDBRANCH   1  17
TORSDOF 6
