REMARK  Name = ZINC000069616620
REMARK                            x       y       z     vdW  Elec       q    Type
REMARK                         _______ _______ _______ _____ _____    ______ ____
ROOT
ATOM      1  N   LIG    1       -4.870  -2.877   0.028  0.00  0.00    -0.285 N 
ATOM      2  H   LIG    1       -5.715  -2.409   0.115  0.00  0.00    +0.155 HD
ATOM      3  C   LIG    1       -4.850  -4.220  -0.077  0.00  0.00    +0.222 C 
ATOM      4  O   LIG    1       -3.791  -4.811  -0.092  0.00  0.00    -0.275 OA
ENDROOT
BRANCH   1   5
ATOM      5  C   LIG    1       -3.675  -2.158   0.013  0.00  0.00    +0.036 A 
ATOM      6  C   LIG    1       -3.557  -0.993   0.763  0.00  0.00    +0.062 A 
ATOM      7  C   LIG    1       -2.374  -0.282   0.754  0.00  0.00    +0.137 A 
ATOM      8  F   LIG    1       -2.259   0.850   1.482  0.00  0.00    -0.205 F 
ATOM      9  C   LIG    1       -1.297  -0.732  -0.019  0.00  0.00    +0.072 A 
ATOM     10  C   LIG    1       -1.422  -1.904  -0.770  0.00  0.00    +0.018 A 
ATOM     11  C   LIG    1       -2.603  -2.610  -0.752  0.00  0.00    +0.024 A 
BRANCH   9  12
ATOM     12  C   LIG    1       -0.032   0.026  -0.037  0.00  0.00    +0.244 C 
ATOM     13  O   LIG    1        0.076   1.043   0.621  0.00  0.00    -0.270 OA
ATOM     14  N   LIG    1        1.004  -0.408  -0.782  0.00  0.00    -0.325 N 
ATOM     15  H   LIG    1        1.835   0.091  -0.793  0.00  0.00    +0.145 HD
ATOM     16  H   LIG    1        0.918  -1.221  -1.304  0.00  0.00    +0.145 HD
ENDBRANCH   9  12
ENDBRANCH   1   5
BRANCH   3  17
ATOM     17  C   LIG    1       -6.143  -4.987  -0.177  0.00  0.00    +0.093 C 
ATOM     18  C   LIG    1       -6.988  -4.729   1.072  0.00  0.00    +0.016 C 
ATOM     19  C   LIG    1       -8.315  -5.482   0.957  0.00  0.00    +0.020 C 
ATOM     20  C   LIG    1       -8.038  -6.986   0.862  0.00  0.00    +0.106 C 
ATOM     21  N   LIG    1       -7.109  -7.227  -0.250  0.00  0.00    -0.314 N 
ATOM     22  C   LIG    1       -5.841  -6.486  -0.286  0.00  0.00    +0.119 C 
BRANCH  21  23
ATOM     23  C   LIG    1       -7.424  -8.139  -1.251  0.00  0.00    +0.121 A 
ATOM     24  C   LIG    1       -8.709  -8.666  -1.323  0.00  0.00    +0.043 A 
ATOM     25  C   LIG    1       -9.009  -9.572  -2.325  0.00  0.00    +0.005 A 
ATOM     26  C   LIG    1       -8.010  -9.921  -3.224  0.00  0.00    +0.020 A 
ATOM     27  C   LIG    1       -6.756  -9.359  -3.093  0.00  0.00    +0.113 A 
ATOM     28  N   LIG    1       -6.500  -8.493  -2.131  0.00  0.00    -0.240 NA
ENDBRANCH  21  23
ENDBRANCH   3  17
TORSDOF 4
