REMARK  Name = ZINC000069618171
REMARK                            x       y       z     vdW  Elec       q    Type
REMARK                         _______ _______ _______ _____ _____    ______ ____
ROOT
ATOM      1  C   LIG    1        3.801  -2.255   6.386  0.00  0.00    +0.109 C 
ENDROOT
BRANCH   1   2
ATOM      2  C   LIG    1        4.321  -1.154   7.312  0.00  0.00    +0.025 C 
ATOM      3  C   LIG    1        5.013  -1.758   8.559  0.00  0.00    +0.110 C 
ATOM      4  N   LIG    1        5.956  -0.716   9.008  0.00  0.00    -0.327 N 
ATOM      5  C   LIG    1        6.288   0.145   7.864  0.00  0.00    +0.105 C 
ATOM      6  C   LIG    1        5.490  -0.377   6.651  0.00  0.00    +0.025 C 
BRANCH   4   7
ATOM      7  C   LIG    1        6.451  -0.571  10.310  0.00  0.00    +0.072 A 
ATOM      8  C   LIG    1        5.771   0.213  11.229  0.00  0.00    +0.027 A 
ATOM      9  C   LIG    1        6.261   0.355  12.514  0.00  0.00    +0.002 A 
ATOM     10  C   LIG    1        7.430  -0.284  12.885  0.00  0.00    +0.004 A 
ATOM     11  C   LIG    1        8.114  -1.067  11.973  0.00  0.00    +0.047 A 
ATOM     12  C   LIG    1        7.626  -1.219  10.687  0.00  0.00    +0.141 A 
BRANCH  12  13
ATOM     13  O   LIG    1        8.297  -1.989   9.789  0.00  0.00    -0.493 OA
ATOM     14  C   LIG    1        9.501  -2.613  10.242  0.00  0.00    +0.277 C 
ENDBRANCH  12  13
ENDBRANCH   4   7
ENDBRANCH   1   2
BRANCH   1  15
ATOM     15  N   LIG    1        3.116  -1.648   5.242  0.00  0.00    -0.311 N 
ATOM     16  H   LIG    1        3.053  -0.683   5.171  0.00  0.00    +0.149 HD
ATOM     17  C   LIG    1        2.573  -2.431   4.289  0.00  0.00    +0.246 C 
ATOM     18  O   LIG    1        2.652  -3.641   4.378  0.00  0.00    -0.270 OA
BRANCH  17  19
ATOM     19  C   LIG    1        1.882  -1.819   3.137  0.00  0.00    +0.055 A 
ATOM     20  C   LIG    1        1.786  -0.432   3.023  0.00  0.00    +0.127 A 
ATOM     21  N   LIG    1        1.175   0.116   1.994  0.00  0.00    -0.221 NA
ATOM     22  C   LIG    1        0.624  -0.617   1.038  0.00  0.00    +0.214 A 
ATOM     23  C   LIG    1        0.679  -2.006   1.081  0.00  0.00    +0.068 A 
ATOM     24  C   LIG    1        1.314  -2.624   2.139  0.00  0.00    +0.020 A 
BRANCH  22  25
ATOM     25  O   LIG    1        0.002  -0.004   0.002  0.00  0.00    -0.480 OA
ATOM     26  C   LIG    1       -0.017   1.425   0.010  0.00  0.00    +0.279 C 
ENDBRANCH  22  25
ENDBRANCH  17  19
ENDBRANCH   1  15
TORSDOF 6
