REMARK  Name = ZINC000058195427
REMARK                            x       y       z     vdW  Elec       q    Type
REMARK                         _______ _______ _______ _____ _____    ______ ____
ROOT
ATOM      1  S   LIG    1        2.440  -6.028   3.934  0.00  0.00    +0.059 S 
ATOM      2  O   LIG    1        3.568  -6.243   4.770  0.00  0.00    -0.153 OA
ATOM      3  O   LIG    1        2.319  -6.586   2.633  0.00  0.00    -0.153 OA
ENDROOT
BRANCH   1   4
ATOM      4  C   LIG    1        2.289  -4.283   3.743  0.00  0.00    +0.106 A 
ATOM      5  C   LIG    1        2.829  -3.434   4.694  0.00  0.00    +0.028 A 
ATOM      6  C   LIG    1        2.715  -2.063   4.551  0.00  0.00    +0.003 A 
ATOM      7  C   LIG    1        2.061  -1.532   3.459  0.00  0.00    +0.015 A 
ATOM      8  C   LIG    1        1.514  -2.382   2.496  0.00  0.00    +0.061 A 
ATOM      9  C   LIG    1        1.627  -3.765   2.649  0.00  0.00    +0.043 A 
BRANCH   8  10
ATOM     10  C   LIG    1        0.812  -1.820   1.323  0.00  0.00    +0.339 C 
ATOM     11  O   LIG    1        0.333  -2.562   0.489  0.00  0.00    -0.245 OA
BRANCH  10  12
ATOM     12  O   LIG    1        0.704  -0.485   1.178  0.00  0.00    -0.461 OA
BRANCH  12  13
ATOM     13  C   LIG    1        0.002  -0.004   0.002  0.00  0.00    +0.229 C 
ATOM     14  C   LIG    1       -0.019   1.526   0.010  0.00  0.00    +0.048 C 
ENDBRANCH  12  13
ENDBRANCH  10  12
ENDBRANCH   8  10
ENDBRANCH   1   4
BRANCH   1  15
ATOM     15  N   LIG    1        1.119  -6.544   4.789  0.00  0.00    -0.181 NA
ATOM     16  H   LIG    1        1.232  -6.924   5.674  0.00  0.00    +0.149 HD
BRANCH  15  17
ATOM     17  C   LIG    1       -0.221  -6.425   4.208  0.00  0.00    +0.122 C 
ATOM     18  C   LIG    1       -0.872  -5.127   4.690  0.00  0.00    +0.032 C 
BRANCH  17  19
ATOM     19  C   LIG    1       -1.061  -7.599   4.640  0.00  0.00    +0.059 A 
ATOM     20  N   LIG    1       -0.768  -8.234   5.759  0.00  0.00    -0.258 NA
ATOM     21  C   LIG    1       -1.478  -9.263   6.178  0.00  0.00    +0.111 A 
ATOM     22  C   LIG    1       -2.557  -9.722   5.447  0.00  0.00    +0.020 A 
ATOM     23  C   LIG    1       -2.893  -9.084   4.264  0.00  0.00    +0.003 A 
ATOM     24  C   LIG    1       -2.126  -8.002   3.857  0.00  0.00    +0.025 A 
ENDBRANCH  17  19
ENDBRANCH  15  17
ENDBRANCH   1  15
TORSDOF 7
