REMARK  Name = ZINC000000223715
REMARK                            x       y       z     vdW  Elec       q    Type
REMARK                         _______ _______ _______ _____ _____    ______ ____
ROOT
ATOM      1  O   LIG    1        0.002  -0.004  -0.009  0.00  0.00    -0.275 OA
ATOM      2  C   LIG    1       -0.014   1.209   0.007  0.00  0.00    +0.219 C 
ATOM      3  N   LIG    1       -1.191   1.867   0.018  0.00  0.00    -0.285 N 
ATOM      4  H   LIG    1       -1.205   2.833   0.098  0.00  0.00    +0.155 HD
ENDROOT
BRANCH   3   5
ATOM      5  C   LIG    1       -2.393   1.154  -0.086  0.00  0.00    +0.037 A 
ATOM      6  C   LIG    1       -2.510  -0.099   0.499  0.00  0.00    +0.072 A 
ATOM      7  C   LIG    1       -3.701  -0.801   0.402  0.00  0.00    +0.164 A 
ATOM      8  O   LIG    1       -3.802  -2.027   0.984  0.00  0.00    -0.485 OA
ATOM      9  C   LIG    1       -5.125  -2.537   1.185  0.00  0.00    +0.270 C 
ATOM     10  C   LIG    1       -5.923  -2.326  -0.109  0.00  0.00    +0.270 C 
ATOM     11  O   LIG    1       -5.954  -0.924  -0.393  0.00  0.00    -0.485 OA
ATOM     12  C   LIG    1       -4.774  -0.251  -0.290  0.00  0.00    +0.162 A 
ATOM     13  C   LIG    1       -4.651   0.998  -0.880  0.00  0.00    +0.051 A 
ATOM     14  C   LIG    1       -3.465   1.699  -0.779  0.00  0.00    +0.027 A 
ENDBRANCH   3   5
BRANCH   2  15
ATOM     15  C   LIG    1        1.280   1.980   0.007  0.00  0.00    +0.119 C 
BRANCH  15  16
ATOM     16  C   LIG    1        2.457   1.002  -0.013  0.00  0.00    +0.181 C 
BRANCH  16  17
ATOM     17  S   LIG    1        4.015   1.931  -0.013  0.00  0.00    -0.003 S 
ATOM     18  O   LIG    1        4.201   2.591   1.231  0.00  0.00    -0.169 OA
ATOM     19  O   LIG    1        4.184   2.623  -1.242  0.00  0.00    -0.169 OA
BRANCH  17  20
ATOM     20  C   LIG    1        5.266   0.690  -0.037  0.00  0.00    +0.088 A 
ATOM     21  C   LIG    1        5.761   0.184   1.150  0.00  0.00    +0.027 A 
ATOM     22  C   LIG    1        6.743  -0.789   1.131  0.00  0.00    +0.002 A 
ATOM     23  C   LIG    1        7.229  -1.257  -0.076  0.00  0.00    +0.000 A 
ATOM     24  C   LIG    1        6.733  -0.752  -1.263  0.00  0.00    +0.002 A 
ATOM     25  C   LIG    1        5.748   0.218  -1.244  0.00  0.00    +0.027 A 
ENDBRANCH  17  20
ENDBRANCH  16  17
ENDBRANCH  15  16
ENDBRANCH   2  15
TORSDOF 5
