REMARK  Name = ZINC000042369518
REMARK                            x       y       z     vdW  Elec       q    Type
REMARK                         _______ _______ _______ _____ _____    ______ ____
ROOT
ATOM      1  N   LIG    1        0.718  -0.462  -1.191  0.00  0.00    -0.308 N 
ATOM      2  H   LIG    1        1.509  -1.015  -1.100  0.00  0.00    +0.149 HD
ATOM      3  C   LIG    1        0.276  -0.116  -2.417  0.00  0.00    +0.214 C 
ATOM      4  O   LIG    1       -0.715   0.575  -2.531  0.00  0.00    -0.276 OA
ENDROOT
BRANCH   1   5
ATOM      5  C   LIG    1        0.002  -0.004   0.002  0.00  0.00    +0.052 C 
ATOM      6  C   LIG    1        0.747  -0.499   1.251  0.00  0.00    +0.191 C 
ATOM      7  S   LIG    1       -0.439  -1.591   2.123  0.00  0.00    -0.029 S 
ATOM      8  O   LIG    1       -1.163  -0.836   3.084  0.00  0.00    -0.174 OA
ATOM      9  O   LIG    1        0.208  -2.797   2.504  0.00  0.00    -0.174 OA
ATOM     10  C   LIG    1       -1.500  -1.897   0.653  0.00  0.00    +0.168 C 
ATOM     11  C   LIG    1       -0.019   1.526   0.010  0.00  0.00    +0.033 C 
ATOM     12  C   LIG    1       -1.437  -0.520  -0.057  0.00  0.00    +0.049 C 
ENDBRANCH   1   5
BRANCH   3  13
ATOM     13  C   LIG    1        1.011  -0.588  -3.644  0.00  0.00    +0.102 C 
BRANCH  13  14
ATOM     14  C   LIG    1        0.307  -0.059  -4.896  0.00  0.00    -0.020 C 
ATOM     15  C   LIG    1        0.294   1.471  -4.865  0.00  0.00    +0.011 C 
ATOM     16  C   LIG    1       -0.410   2.000  -6.116  0.00  0.00    -0.010 C 
ATOM     17  C   LIG    1       -1.848   1.478  -6.152  0.00  0.00    +0.007 C 
ATOM     18  C   LIG    1       -1.834  -0.051  -6.182  0.00  0.00    -0.010 C 
ATOM     19  C   LIG    1       -1.087  -0.530  -7.428  0.00  0.00    +0.007 C 
ATOM     20  C   LIG    1        0.351  -0.008  -7.393  0.00  0.00    -0.010 C 
ATOM     21  C   LIG    1        0.337   1.522  -7.362  0.00  0.00    +0.007 C 
ATOM     22  C   LIG    1       -1.130  -0.581  -4.931  0.00  0.00    +0.011 C 
ATOM     23  C   LIG    1        1.055  -0.537  -6.142  0.00  0.00    +0.011 C 
ENDBRANCH  13  14
ENDBRANCH   3  13
TORSDOF 3
