REMARK  Name = ZINC000001099201
REMARK                            x       y       z     vdW  Elec       q    Type
REMARK                         _______ _______ _______ _____ _____    ______ ____
ROOT
ATOM      1  C   LIG    1        4.017   1.961  -0.026  0.00  0.00    +0.197 A 
ATOM      2  N   LIG    1        3.928   3.273  -0.012  0.00  0.00    -0.122 NA
ATOM      3  N   LIG    1        5.102   3.798  -0.022  0.00  0.00    -0.129 NA
ATOM      4  C   LIG    1        6.018   2.847  -0.044  0.00  0.00    +0.162 A 
ATOM      5  C   LIG    1        7.432   2.885  -0.062  0.00  0.00    +0.049 A 
ATOM      6  C   LIG    1        8.147   1.738  -0.082  0.00  0.00    +0.013 A 
ATOM      7  C   LIG    1        7.439   0.454  -0.085  0.00  0.00    -0.001 A 
ATOM      8  C   LIG    1        6.033   0.446  -0.066  0.00  0.00    +0.058 A 
ATOM      9  C   LIG    1        5.356  -0.766  -0.069  0.00  0.00    +0.027 A 
ATOM     10  C   LIG    1        6.063  -1.951  -0.088  0.00  0.00    +0.002 A 
ATOM     11  C   LIG    1        7.450  -1.945  -0.106  0.00  0.00    +0.001 A 
ATOM     12  C   LIG    1        8.142  -0.754  -0.104  0.00  0.00    +0.010 A 
ATOM     13  N   LIG    1        5.344   1.646  -0.040  0.00  0.00    -0.270 N 
ENDROOT
BRANCH   1  14
ATOM     14  S   LIG    1        2.672   0.823  -0.019  0.00  0.00    -0.076 S 
BRANCH  14  15
ATOM     15  C   LIG    1        1.280   1.980   0.001  0.00  0.00    +0.173 C 
BRANCH  15  16
ATOM     16  C   LIG    1       -0.014   1.209   0.009  0.00  0.00    +0.223 C 
ATOM     17  N   LIG    1       -1.191   1.867   0.018  0.00  0.00    -0.312 N 
ATOM     18  H   LIG    1       -1.204   2.837   0.023  0.00  0.00    +0.149 HD
ATOM     19  O   LIG    1        0.002  -0.004   0.002  0.00  0.00    -0.275 OA
BRANCH  17  20
ATOM     20  C   LIG    1       -2.449   1.117   0.020  0.00  0.00    +0.135 C 
BRANCH  20  21
ATOM     21  C   LIG    1       -3.626   2.095   0.031  0.00  0.00    +0.135 C 
ATOM     22  C   LIG    1       -4.953   1.317   0.155  0.00  0.00    +0.035 C 
ATOM     23  C   LIG    1       -5.889   2.108  -0.799  0.00  0.00    +0.031 C 
ATOM     24  C   LIG    1       -4.889   2.544  -1.899  0.00  0.00    +0.160 C 
ATOM     25  O   LIG    1       -3.663   2.824  -1.202  0.00  0.00    -0.375 OA
ENDBRANCH  20  21
ENDBRANCH  17  20
ENDBRANCH  15  16
ENDBRANCH  14  15
ENDBRANCH   1  14
TORSDOF 5
