REMARK  Name = ZINC000095992136
REMARK                            x       y       z     vdW  Elec       q    Type
REMARK                         _______ _______ _______ _____ _____    ______ ____
ROOT
ATOM      1  N   LIG    1        0.333  -6.981  -0.033  0.00  0.00    -0.306 N 
ATOM      2  H   LIG    1        1.003  -6.280  -0.032  0.00  0.00    +0.149 HD
ATOM      3  C   LIG    1        0.712  -8.275  -0.042  0.00  0.00    +0.262 C 
ATOM      4  O   LIG    1       -0.129  -9.154  -0.043  0.00  0.00    -0.269 OA
ENDROOT
BRANCH   3   5
ATOM      5  C   LIG    1        2.141  -8.623  -0.052  0.00  0.00    +0.124 A 
ATOM      6  N   LIG    1        3.202  -7.756  -0.053  0.00  0.00    -0.272 N 
ATOM      7  H   LIG    1        3.132  -6.789  -0.045  0.00  0.00    +0.189 HD
ATOM      8  N   LIG    1        4.306  -8.420  -0.059  0.00  0.00    -0.178 NA
ATOM      9  C   LIG    1        4.074  -9.700  -0.070  0.00  0.00    +0.067 A 
ATOM     10  C   LIG    1        5.058 -10.845  -0.082  0.00  0.00    +0.057 C 
ATOM     11  C   LIG    1        4.312 -12.121   0.329  0.00  0.00    +0.007 C 
ATOM     12  C   LIG    1        3.043 -12.276  -0.512  0.00  0.00    +0.005 C 
ATOM     13  C   LIG    1        2.009 -11.226  -0.085  0.00  0.00    +0.039 C 
ATOM     14  C   LIG    1        2.685  -9.883  -0.068  0.00  0.00    +0.005 A 
ENDBRANCH   3   5
BRANCH   1  15
ATOM     15  C   LIG    1       -1.090  -6.635  -0.023  0.00  0.00    +0.140 C 
BRANCH  15  16
ATOM     16  C   LIG    1       -1.242  -5.135  -0.014  0.00  0.00    -0.030 A 
ATOM     17  C   LIG    1       -1.305  -4.455   1.188  0.00  0.00    +0.007 A 
ATOM     18  C   LIG    1       -1.440  -3.079   1.196  0.00  0.00    +0.027 A 
ATOM     19  C   LIG    1       -1.522  -2.385   0.004  0.00  0.00    +0.088 A 
ATOM     20  C   LIG    1       -1.458  -3.066  -1.198  0.00  0.00    +0.027 A 
ATOM     21  C   LIG    1       -1.318  -4.441  -1.206  0.00  0.00    +0.007 A 
BRANCH  19  22
ATOM     22  S   LIG    1       -1.700  -0.632   0.015  0.00  0.00    -0.003 S 
ATOM     23  O   LIG    1       -2.325  -0.351   1.259  0.00  0.00    -0.169 OA
ATOM     24  O   LIG    1       -2.349  -0.338  -1.214  0.00  0.00    -0.169 OA
BRANCH  22  25
ATOM     25  C   LIG    1        0.002  -0.004   0.002  0.00  0.00    +0.168 C 
ATOM     26  C   LIG    1       -0.019   1.526   0.010  0.00  0.00    +0.028 C 
ENDBRANCH  22  25
ENDBRANCH  19  22
ENDBRANCH  15  16
ENDBRANCH   1  15
TORSDOF 5
