REMARK  Name = ZINC000082157137
REMARK                            x       y       z     vdW  Elec       q    Type
REMARK                         _______ _______ _______ _____ _____    ______ ____
ROOT
ATOM      1  C   LIG    1       -0.139  -2.644   4.136  0.00  0.00    +0.070 C 
ENDROOT
BRANCH   1   2
ATOM      2  C   LIG    1        0.590  -3.144   5.357  0.00  0.00    +0.106 A 
ATOM      3  C   LIG    1       -0.104  -4.002   6.323  0.00  0.00    +0.271 A 
ATOM      4  N   LIG    1        0.564  -4.446   7.410  0.00  0.00    -0.319 N 
ATOM      5  H   LIG    1        0.124  -5.017   8.059  0.00  0.00    +0.169 HD
ATOM      6  C   LIG    1        1.880  -4.069   7.585  0.00  0.00    +0.068 A 
ATOM      7  C   LIG    1        2.594  -4.505   8.697  0.00  0.00    +0.028 A 
ATOM      8  C   LIG    1        3.908  -4.122   8.862  0.00  0.00    +0.002 A 
ATOM      9  C   LIG    1        4.526  -3.304   7.926  0.00  0.00    +0.002 A 
ATOM     10  C   LIG    1        3.846  -2.865   6.828  0.00  0.00    +0.030 A 
ATOM     11  C   LIG    1        2.507  -3.240   6.636  0.00  0.00    +0.088 A 
ATOM     12  O   LIG    1       -1.267  -4.317   6.143  0.00  0.00    -0.266 OA
ATOM     13  N   LIG    1        1.833  -2.808   5.553  0.00  0.00    -0.245 NA
ENDBRANCH   1   2
BRANCH   1  14
ATOM     14  C   LIG    1        0.804  -1.777   3.299  0.00  0.00    +0.102 C 
BRANCH  14  15
ATOM     15  C   LIG    1        0.075  -1.278   2.078  0.00  0.00    +0.216 C 
ATOM     16  O   LIG    1       -1.084  -1.586   1.895  0.00  0.00    -0.276 OA
ATOM     17  N   LIG    1        0.711  -0.489   1.189  0.00  0.00    -0.296 N 
ATOM     18  C   LIG    1        2.110  -0.118   1.409  0.00  0.00    +0.132 C 
BRANCH  17  19
ATOM     19  C   LIG    1        0.002  -0.004   0.002  0.00  0.00    +0.125 C 
ATOM     20  C   LIG    1       -0.019   1.526   0.010  0.00  0.00    +0.035 C 
BRANCH  19  21
ATOM     21  C   LIG    1        0.707  -0.490  -1.238  0.00  0.00    +0.104 A 
ATOM     22  N   LIG    1        1.962  -0.824  -1.342  0.00  0.00    -0.082 NA
ATOM     23  O   LIG    1        2.237  -1.175  -2.465  0.00  0.00    -0.363 OA
ATOM     24  C   LIG    1        1.171  -1.119  -3.275  0.00  0.00    +0.230 A 
ATOM     25  C   LIG    1        0.137  -0.680  -2.517  0.00  0.00    +0.069 A 
ENDBRANCH  19  21
ENDBRANCH  17  19
ENDBRANCH  14  15
ENDBRANCH   1  14
TORSDOF 5
