REMARK  Name = ZINC000042367892
REMARK                            x       y       z     vdW  Elec       q    Type
REMARK                         _______ _______ _______ _____ _____    ______ ____
ROOT
ATOM      1  C   LIG    1        0.712  -1.094  -3.598  0.00  0.00    +0.131 C 
ENDROOT
BRANCH   1   2
ATOM      2  C   LIG    1       -0.267  -1.152  -4.743  0.00  0.00    -0.034 A 
ATOM      3  C   LIG    1       -0.990  -2.307  -4.974  0.00  0.00    +0.028 A 
ATOM      4  C   LIG    1       -1.891  -2.367  -6.024  0.00  0.00    +0.086 A 
ATOM      5 CL   LIG    1       -2.798  -3.819  -6.312  0.00  0.00    -0.080 Cl
ATOM      6  C   LIG    1       -2.064  -1.264  -6.843  0.00  0.00    +0.180 A 
ATOM      7  C   LIG    1       -1.339  -0.104  -6.610  0.00  0.00    +0.164 A 
ATOM      8  O   LIG    1       -1.518   0.978  -7.422  0.00  0.00    -0.488 OA
ATOM      9  C   LIG    1       -2.788   1.626  -7.327  0.00  0.00    +0.232 C 
ATOM     10  C   LIG    1       -3.815   0.934  -8.210  0.00  0.00    +0.082 C 
ATOM     11  C   LIG    1       -4.108  -0.486  -7.753  0.00  0.00    +0.232 C 
ATOM     12  O   LIG    1       -2.948  -1.310  -7.882  0.00  0.00    -0.487 OA
ATOM     13  C   LIG    1       -0.443  -0.046  -5.556  0.00  0.00    +0.053 A 
ENDBRANCH   1   2
BRANCH   1  14
ATOM     14  C   LIG    1        0.006  -0.608  -2.358  0.00  0.00    +0.218 C 
ATOM     15  N   LIG    1        0.688  -0.476  -1.203  0.00  0.00    -0.311 N 
ATOM     16  H   LIG    1        1.632  -0.695  -1.170  0.00  0.00    +0.149 HD
ATOM     17  O   LIG    1       -1.175  -0.336  -2.400  0.00  0.00    -0.275 OA
BRANCH  15  18
ATOM     18  C   LIG    1        0.002  -0.004   0.002  0.00  0.00    +0.091 C 
ATOM     19  C   LIG    1       -0.019   1.526   0.010  0.00  0.00    +0.029 C 
BRANCH  18  20
ATOM     20  C   LIG    1        0.742  -0.511   1.242  0.00  0.00    +0.165 C 
BRANCH  20  21
ATOM     21  N   LIG    1        0.659  -1.972   1.296  0.00  0.00    -0.270 N 
ATOM     22  C   LIG    1        1.702  -2.824   1.385  0.00  0.00    +0.108 A 
ATOM     23  C   LIG    1        1.206  -4.083   1.410  0.00  0.00    +0.041 A 
ATOM     24  C   LIG    1       -0.188  -3.998   1.333  0.00  0.00    +0.134 A 
ATOM     25  N   LIG    1       -0.517  -2.733   1.271  0.00  0.00    -0.180 NA
ENDBRANCH  20  21
ENDBRANCH  18  20
ENDBRANCH  15  18
ENDBRANCH   1  14
TORSDOF 5
