REMARK  Name = ZINC000069618112
REMARK                            x       y       z     vdW  Elec       q    Type
REMARK                         _______ _______ _______ _____ _____    ______ ____
ROOT
ATOM      1  O   LIG    1        0.002  -0.004   0.002  0.00  0.00    -0.273 OA
ATOM      2  C   LIG    1       -0.014   1.209   0.009  0.00  0.00    +0.238 C 
ATOM      3  N   LIG    1       -1.191   1.867   0.018  0.00  0.00    -0.269 N 
ATOM      4  H   LIG    1       -1.204   2.837   0.023  0.00  0.00    +0.156 HD
ENDROOT
BRANCH   3   5
ATOM      5  C   LIG    1       -2.389   1.153   0.020  0.00  0.00    +0.129 A 
ATOM      6  N   LIG    1       -3.642   1.684   0.029  0.00  0.00    -0.218 N 
ATOM      7  N   LIG    1       -4.556   0.622   0.024  0.00  0.00    -0.173 NA
ATOM      8  C   LIG    1       -3.884  -0.501   0.021  0.00  0.00    +0.137 A 
ATOM      9  C   LIG    1       -2.519  -0.202   0.019  0.00  0.00    +0.065 A 
BRANCH   6  10
ATOM     10  C   LIG    1       -3.961   3.048   0.032  0.00  0.00    +0.069 A 
ATOM     11  C   LIG    1       -3.160   3.948   0.721  0.00  0.00    +0.028 A 
ATOM     12  C   LIG    1       -3.476   5.293   0.723  0.00  0.00    +0.003 A 
ATOM     13  C   LIG    1       -4.590   5.744   0.039  0.00  0.00    +0.020 A 
ATOM     14  C   LIG    1       -5.392   4.849  -0.648  0.00  0.00    +0.043 A 
ATOM     15 CL   LIG    1       -6.790   5.419  -1.506  0.00  0.00    -0.083 Cl
ATOM     16  C   LIG    1       -5.077   3.503  -0.658  0.00  0.00    +0.047 A 
ENDBRANCH   6  10
ENDBRANCH   3   5
BRANCH   2  17
ATOM     17  C   LIG    1        1.280   1.980   0.001  0.00  0.00    +0.220 C 
BRANCH  17  18
ATOM     18  N   LIG    1        2.407   1.043  -0.015  0.00  0.00    -0.306 N 
ATOM     19  C   LIG    1        2.930   0.603   1.157  0.00  0.00    +0.089 A 
ATOM     20  C   LIG    1        3.971  -0.262   1.168  0.00  0.00    +0.018 A 
ATOM     21  C   LIG    1        4.519  -0.713  -0.041  0.00  0.00    +0.007 A 
ATOM     22  C   LIG    1        3.991  -0.270  -1.218  0.00  0.00    +0.070 A 
ATOM     23  C   LIG    1        2.907   0.624  -1.193  0.00  0.00    +0.252 A 
ATOM     24  O   LIG    1        2.425   1.028  -2.239  0.00  0.00    -0.268 OA
ENDBRANCH  17  18
ENDBRANCH   2  17
TORSDOF 4
