REMARK  Name = ZINC000005580771
REMARK                            x       y       z     vdW  Elec       q    Type
REMARK                         _______ _______ _______ _____ _____    ______ ____
ROOT
ATOM      1  S   LIG    1        1.159  -2.456   4.572  0.00  0.00    -0.075 S 
ENDROOT
BRANCH   1   2
ATOM      2  C   LIG    1        1.234  -1.508   3.089  0.00  0.00    +0.209 A 
ATOM      3  N   LIG    1        2.275  -0.848   2.636  0.00  0.00    -0.121 NA
ATOM      4  N   LIG    1        1.977  -0.269   1.528  0.00  0.00    -0.132 NA
ATOM      5  C   LIG    1        0.739  -0.523   1.210  0.00  0.00    +0.154 A 
ATOM      6  N   LIG    1        0.220  -1.317   2.196  0.00  0.00    -0.228 N 
BRANCH   5   7
ATOM      7  C   LIG    1        0.011  -0.028  -0.013  0.00  0.00    +0.052 C 
ATOM      8  C   LIG    1       -0.003   1.502  -0.014  0.00  0.00    +0.015 C 
ATOM      9  C   LIG    1        0.725  -0.531  -1.269  0.00  0.00    +0.015 C 
ENDBRANCH   5   7
BRANCH   6  10
ATOM     10  N   LIG    1       -1.048  -1.820   2.267  0.00  0.00    -0.295 N 
ATOM     11  H   LIG    1       -1.660  -1.190   2.764  0.00  0.00    +0.163 HD
ATOM     12  H   LIG    1       -1.408  -2.024   1.347  0.00  0.00    +0.163 HD
ENDBRANCH   6  10
ENDBRANCH   1   2
BRANCH   1  13
ATOM     13  C   LIG    1        2.847  -2.220   5.182  0.00  0.00    +0.173 C 
BRANCH  13  14
ATOM     14  C   LIG    1        3.021  -2.963   6.481  0.00  0.00    +0.227 C 
ATOM     15  N   LIG    1        4.205  -2.931   7.123  0.00  0.00    -0.285 N 
ATOM     16  H   LIG    1        4.965  -2.486   6.717  0.00  0.00    +0.155 HD
ATOM     17  O   LIG    1        2.094  -3.591   6.949  0.00  0.00    -0.275 OA
BRANCH  15  18
ATOM     18  C   LIG    1        4.339  -3.540   8.377  0.00  0.00    +0.033 A 
ATOM     19  C   LIG    1        5.162  -2.973   9.341  0.00  0.00    +0.025 A 
ATOM     20  C   LIG    1        5.293  -3.576  10.576  0.00  0.00    +0.022 A 
ATOM     21  C   LIG    1        4.603  -4.743  10.854  0.00  0.00    +0.041 A 
ATOM     22 CL   LIG    1        4.769  -5.498  12.409  0.00  0.00    -0.084 Cl
ATOM     23  C   LIG    1        3.782  -5.310   9.896  0.00  0.00    +0.022 A 
ATOM     24  C   LIG    1        3.644  -4.708   8.660  0.00  0.00    +0.025 A 
ENDBRANCH  15  18
ENDBRANCH  13  14
ENDBRANCH   1  13
TORSDOF 6
