REMARK  Name = ZINC000082138465
REMARK                            x       y       z     vdW  Elec       q    Type
REMARK                         _______ _______ _______ _____ _____    ______ ____
ROOT
ATOM      1  N   LIG    1        1.442  -3.742  -1.761  0.00  0.00    -0.288 NA
ATOM      2  C   LIG    1        2.296  -3.236  -0.674  0.00  0.00    +0.104 C 
ATOM      3  C   LIG    1        3.660  -3.922  -0.761  0.00  0.00    +0.129 C 
ATOM      4  N   LIG    1        4.182  -3.827  -2.122  0.00  0.00    -0.269 N 
ATOM      5  C   LIG    1        3.412  -3.546  -3.178  0.00  0.00    +0.234 C 
ATOM      6  O   LIG    1        3.922  -3.517  -4.278  0.00  0.00    -0.274 OA
ATOM      7  C   LIG    1        1.940  -3.267  -3.059  0.00  0.00    +0.181 C 
ENDROOT
BRANCH   4   8
ATOM      8  C   LIG    1        5.550  -4.038  -2.329  0.00  0.00    +0.038 A 
ATOM      9  C   LIG    1        6.434  -2.969  -2.282  0.00  0.00    +0.023 A 
ATOM     10  C   LIG    1        7.784  -3.180  -2.488  0.00  0.00    +0.003 A 
ATOM     11  C   LIG    1        8.255  -4.455  -2.740  0.00  0.00    +0.020 A 
ATOM     12  C   LIG    1        7.376  -5.524  -2.788  0.00  0.00    +0.043 A 
ATOM     13 CL   LIG    1        7.972  -7.123  -3.104  0.00  0.00    -0.083 Cl
ATOM     14  C   LIG    1        6.026  -5.319  -2.577  0.00  0.00    +0.043 A 
ENDBRANCH   4   8
BRANCH   1  15
ATOM     15  C   LIG    1        0.042  -3.347  -1.558  0.00  0.00    +0.121 C 
BRANCH  15  16
ATOM     16  C   LIG    1       -0.046  -1.847  -1.448  0.00  0.00    -0.015 A 
ATOM     17  C   LIG    1        0.048  -1.100  -0.268  0.00  0.00    +0.043 A 
ATOM     18  C   LIG    1       -0.078   0.228  -0.618  0.00  0.00    +0.120 A 
ATOM     19  N   LIG    1       -0.255   0.283  -1.981  0.00  0.00    -0.342 N 
ATOM     20  C   LIG    1       -0.433   1.504  -2.771  0.00  0.00    +0.149 C 
ATOM     21  C   LIG    1       -0.230  -0.982  -2.473  0.00  0.00    +0.091 A 
BRANCH  18  22
ATOM     22  C   LIG    1       -0.041   1.346   0.277  0.00  0.00    +0.117 C 
ATOM     23  N   LIG    1       -0.012   2.232   0.986  0.00  0.00    -0.189 NA
ENDBRANCH  18  22
ENDBRANCH  15  16
ENDBRANCH   1  15
TORSDOF 4
