REMARK  Name = ZINC000069602003
REMARK                            x       y       z     vdW  Elec       q    Type
REMARK                         _______ _______ _______ _____ _____    ______ ____
ROOT
ATOM      1  N   LIG    1        0.092  -2.777  -0.116  0.00  0.00    -0.327 N 
ATOM      2  C   LIG    1        0.783  -3.252   1.091  0.00  0.00    +0.110 C 
ATOM      3  C   LIG    1       -0.230  -4.089   1.900  0.00  0.00    +0.025 C 
ATOM      4  C   LIG    1       -1.263  -4.516   0.824  0.00  0.00    +0.025 C 
ATOM      5  C   LIG    1       -1.300  -3.263  -0.086  0.00  0.00    +0.105 C 
ENDROOT
BRANCH   1   6
ATOM      6  C   LIG    1        0.662  -1.998  -1.129  0.00  0.00    +0.072 A 
ATOM      7  C   LIG    1        0.606  -0.608  -1.057  0.00  0.00    +0.141 A 
ATOM      8  C   LIG    1        1.173   0.158  -2.062  0.00  0.00    +0.047 A 
ATOM      9  C   LIG    1        1.787  -0.457  -3.137  0.00  0.00    +0.004 A 
ATOM     10  C   LIG    1        1.838  -1.836  -3.213  0.00  0.00    +0.002 A 
ATOM     11  C   LIG    1        1.275  -2.608  -2.214  0.00  0.00    +0.027 A 
BRANCH   7  12
ATOM     12  O   LIG    1        0.002  -0.004   0.002  0.00  0.00    -0.493 OA
ATOM     13  C   LIG    1       -0.017   1.425   0.010  0.00  0.00    +0.277 C 
ENDBRANCH   7  12
ENDBRANCH   1   6
BRANCH   3  14
ATOM     14  C   LIG    1        0.448  -5.315   2.516  0.00  0.00    +0.109 C 
BRANCH  14  15
ATOM     15  N   LIG    1       -0.538  -6.089   3.274  0.00  0.00    -0.313 N 
ATOM     16  C   LIG    1       -0.165  -7.219   3.907  0.00  0.00    +0.236 C 
ATOM     17  O   LIG    1        0.986  -7.594   3.849  0.00  0.00    -0.274 OA
ATOM     18  H   LIG    1       -1.459  -5.788   3.320  0.00  0.00    +0.149 HD
BRANCH  16  19
ATOM     19  C   LIG    1       -1.179  -8.015   4.687  0.00  0.00    +0.170 C 
ATOM     20  C   LIG    1       -2.301  -8.469   3.751  0.00  0.00    +0.041 C 
BRANCH  19  21
ATOM     21  N   LIG    1       -0.530  -9.189   5.277  0.00  0.00    -0.325 N 
ATOM     22  C   LIG    1       -0.450  -9.489   6.610  0.00  0.00    +0.107 A 
ATOM     23  C   LIG    1        0.226 -10.649   6.708  0.00  0.00    +0.130 A 
ATOM     24  N   LIG    1        0.550 -11.047   5.469  0.00  0.00    -0.244 NA
ATOM     25  C   LIG    1        0.096 -10.179   4.606  0.00  0.00    +0.199 A 
ENDBRANCH  19  21
ENDBRANCH  16  19
ENDBRANCH  14  15
ENDBRANCH   3  14
TORSDOF 6
