REMARK  Name = ZINC000058178572
REMARK                            x       y       z     vdW  Elec       q    Type
REMARK                         _______ _______ _______ _____ _____    ______ ____
ROOT
ATOM      1  C   LIG    1        0.847  -0.424  -1.486  0.00  0.00    +0.256 A 
ATOM      2  N   LIG    1        2.194  -0.601  -1.599  0.00  0.00    -0.284 N 
ATOM      3  C   LIG    1        3.216  -0.532  -0.697  0.00  0.00    +0.094 A 
ATOM      4  C   LIG    1        4.489  -0.764  -1.083  0.00  0.00    +0.018 A 
ATOM      5  C   LIG    1        4.781  -1.086  -2.418  0.00  0.00    +0.004 A 
ATOM      6  C   LIG    1        3.768  -1.163  -3.328  0.00  0.00    +0.028 A 
ATOM      7  C   LIG    1        2.453  -0.919  -2.909  0.00  0.00    +0.082 A 
ATOM      8  C   LIG    1        1.214  -0.915  -3.566  0.00  0.00    +0.175 A 
ATOM      9  N   LIG    1        0.279  -0.607  -2.643  0.00  0.00    -0.204 NA
ENDROOT
BRANCH   1  10
ATOM     10  S   LIG    1        0.002  -0.004   0.002  0.00  0.00    +0.028 S 
ATOM     11  O   LIG    1        0.845  -0.497   1.035  0.00  0.00    -0.167 OA
ATOM     12  C   LIG    1       -0.022   1.810   0.012  0.00  0.00    +0.204 C 
ATOM     13  O   LIG    1       -1.309  -0.519  -0.182  0.00  0.00    -0.167 OA
ENDBRANCH   1  10
BRANCH   8  14
ATOM     14  C   LIG    1        0.987  -1.184  -4.939  0.00  0.00    +0.360 C 
ATOM     15  O   LIG    1        1.923  -1.450  -5.670  0.00  0.00    -0.243 OA
BRANCH  14  16
ATOM     16  O   LIG    1       -0.268  -1.144  -5.436  0.00  0.00    -0.455 OA
BRANCH  16  17
ATOM     17  C   LIG    1       -0.423  -1.425  -6.829  0.00  0.00    +0.270 C 
BRANCH  17  18
ATOM     18  C   LIG    1       -1.881  -1.334  -7.200  0.00  0.00    +0.025 A 
ATOM     19  C   LIG    1       -2.820  -1.012  -6.239  0.00  0.00    +0.010 A 
ATOM     20  C   LIG    1       -4.157  -0.929  -6.580  0.00  0.00    +0.001 A 
ATOM     21  C   LIG    1       -4.557  -1.168  -7.881  0.00  0.00    +0.003 A 
ATOM     22  C   LIG    1       -3.619  -1.491  -8.844  0.00  0.00    +0.039 A 
ATOM     23  C   LIG    1       -2.279  -1.569  -8.506  0.00  0.00    +0.130 A 
ATOM     24  F   LIG    1       -1.361  -1.884  -9.446  0.00  0.00    -0.205 F 
ENDBRANCH  17  18
ENDBRANCH  16  17
ENDBRANCH  14  16
ENDBRANCH   8  14
TORSDOF 5
