REMARK  Name = ZINC000058197081
REMARK                            x       y       z     vdW  Elec       q    Type
REMARK                         _______ _______ _______ _____ _____    ______ ____
ROOT
ATOM      1  N   LIG    1       -0.144   0.238   2.336  0.00  0.00    -0.299 N 
ATOM      2  C   LIG    1        0.457   0.567   3.529  0.00  0.00    +0.165 A 
ATOM      3  N   LIG    1       -0.413   0.318   4.480  0.00  0.00    -0.128 NA
ATOM      4  N   LIG    1       -1.498  -0.146   3.971  0.00  0.00    -0.122 NA
ATOM      5  C   LIG    1       -1.390  -0.217   2.663  0.00  0.00    +0.193 A 
ENDROOT
BRANCH   2   6
ATOM      6  C   LIG    1        1.821   1.107   3.706  0.00  0.00    +0.019 A 
ATOM      7  C   LIG    1        2.096   1.984   4.757  0.00  0.00    +0.011 A 
ATOM      8  C   LIG    1        3.372   2.486   4.916  0.00  0.00    +0.001 A 
ATOM      9  C   LIG    1        4.377   2.121   4.038  0.00  0.00    +0.000 A 
ATOM     10  C   LIG    1        4.110   1.253   2.994  0.00  0.00    +0.001 A 
ATOM     11  C   LIG    1        2.841   0.739   2.827  0.00  0.00    +0.011 A 
ENDBRANCH   2   6
BRANCH   1  12
ATOM     12  C   LIG    1        0.434   0.347   0.994  0.00  0.00    +0.088 C 
ATOM     13  C   LIG    1        0.585  -1.050   0.389  0.00  0.00    +0.031 C 
BRANCH  12  14
ATOM     14  C   LIG    1       -0.486   1.190   0.109  0.00  0.00    +0.021 C 
ATOM     15  C   LIG    1       -0.538   2.622   0.645  0.00  0.00    +0.006 C 
ENDBRANCH  12  14
ENDBRANCH   1  12
BRANCH   5  16
ATOM     16  S   LIG    1       -2.621  -0.791   1.541  0.00  0.00    -0.077 S 
BRANCH  16  17
ATOM     17  C   LIG    1       -3.942  -1.202   2.708  0.00  0.00    +0.173 C 
BRANCH  17  18
ATOM     18  C   LIG    1       -5.134  -1.729   1.952  0.00  0.00    +0.231 C 
ATOM     19  N   LIG    1       -6.245  -2.102   2.619  0.00  0.00    -0.240 N 
ATOM     20  H   LIG    1       -6.276  -2.031   3.585  0.00  0.00    +0.159 HD
ATOM     21  C   LIG    1       -7.311  -2.573   1.942  0.00  0.00    +0.306 C 
ATOM     22  N   LIG    1       -8.421  -2.946   2.609  0.00  0.00    -0.302 N 
ATOM     23  H   LIG    1       -8.453  -2.875   3.576  0.00  0.00    +0.150 HD
ATOM     24  C   LIG    1       -9.580  -3.458   1.874  0.00  0.00    +0.129 C 
ATOM     25  O   LIG    1       -7.271  -2.662   0.731  0.00  0.00    -0.252 OA
ATOM     26  O   LIG    1       -5.095  -1.818   0.743  0.00  0.00    -0.274 OA
ENDBRANCH  17  18
ENDBRANCH  16  17
ENDBRANCH   5  16
TORSDOF 6
