REMARK  Name = ZINC000095989075
REMARK                            x       y       z     vdW  Elec       q    Type
REMARK                         _______ _______ _______ _____ _____    ______ ____
ROOT
ATOM      1  C   LIG    1       -4.352  -4.323   0.020  0.00  0.00    +0.048 A 
ATOM      2  C   LIG    1       -5.379  -3.378   0.029  0.00  0.00    +0.015 A 
ATOM      3  C   LIG    1       -6.694  -3.793   0.040  0.00  0.00    +0.016 A 
ATOM      4  C   LIG    1       -6.997  -5.144   0.041  0.00  0.00    +0.018 A 
ATOM      5 BR   LIG    1       -8.803  -5.705   0.055  0.00  0.00    -0.050 Br
ATOM      6  C   LIG    1       -5.982  -6.087   0.032  0.00  0.00    +0.028 A 
ATOM      7  C   LIG    1       -4.663  -5.684   0.016  0.00  0.00    +0.068 A 
ENDROOT
BRANCH   7   8
ATOM      8  C   LIG    1       -3.560  -6.711   0.006  0.00  0.00    +0.418 C 
ATOM      9  F   LIG    1       -2.757  -6.543   1.139  0.00  0.00    -0.166 F 
ATOM     10  F   LIG    1       -4.118  -7.994   0.016  0.00  0.00    -0.166 F 
ATOM     11  F   LIG    1       -2.783  -6.549  -1.145  0.00  0.00    -0.166 F 
ENDBRANCH   7   8
BRANCH   1  12
ATOM     12  C   LIG    1       -2.941  -3.885   0.009  0.00  0.00    +0.245 C 
ATOM     13  N   LIG    1       -2.643  -2.570   0.013  0.00  0.00    -0.301 N 
ATOM     14  H   LIG    1       -3.355  -1.912   0.024  0.00  0.00    +0.150 HD
ATOM     15  O   LIG    1       -2.048  -4.710  -0.004  0.00  0.00    -0.270 OA
BRANCH  13  16
ATOM     16  C   LIG    1       -1.244  -2.135   0.003  0.00  0.00    +0.225 C 
BRANCH  16  17
ATOM     17  C   LIG    1       -1.185  -0.630   0.010  0.00  0.00    +0.324 C 
ATOM     18  O   LIG    1       -2.208   0.015   0.023  0.00  0.00    -0.249 OA
BRANCH  17  19
ATOM     19  O   LIG    1        0.002  -0.004   0.002  0.00  0.00    -0.467 OA
ATOM     20  C   LIG    1       -0.018   1.448   0.010  0.00  0.00    +0.280 C 
ENDBRANCH  17  19
ENDBRANCH  16  17
ENDBRANCH  13  16
ENDBRANCH   1  12
TORSDOF 5
