REMARK  Name = ZINC000069617285
REMARK                            x       y       z     vdW  Elec       q    Type
REMARK                         _______ _______ _______ _____ _____    ______ ____
ROOT
ATOM      1  S   LIG    1        0.059  -3.580   1.560  0.00  0.00    -0.081 S 
ENDROOT
BRANCH   1   2
ATOM      2  C   LIG    1        0.034  -2.095   0.611  0.00  0.00    +0.192 A 
ATOM      3  N   LIG    1        0.024  -0.820   1.099  0.00  0.00    -0.297 N 
ATOM      4  C   LIG    1        0.002  -0.004   0.002  0.00  0.00    +0.131 A 
ATOM      5  C   LIG    1       -0.018   1.503   0.010  0.00  0.00    +0.088 C 
ATOM      6  N   LIG    1        0.008  -0.770  -1.052  0.00  0.00    -0.134 NA
ATOM      7  N   LIG    1        0.027  -2.006  -0.699  0.00  0.00    -0.122 NA
BRANCH   3   8
ATOM      8  C   LIG    1        0.026  -0.411   2.506  0.00  0.00    +0.221 C 
BRANCH   8   9
ATOM      9  C   LIG    1        1.448  -0.257   2.982  0.00  0.00    +0.230 C 
ATOM     10  N   LIG    1        1.696   0.115   4.253  0.00  0.00    -0.328 N 
ATOM     11  H   LIG    1        0.960   0.283   4.862  0.00  0.00    +0.145 HD
ATOM     12  H   LIG    1        2.611   0.214   4.559  0.00  0.00    +0.145 HD
ATOM     13  O   LIG    1        2.368  -0.468   2.221  0.00  0.00    -0.274 OA
ENDBRANCH   8   9
ENDBRANCH   3   8
ENDBRANCH   1   2
BRANCH   1  14
ATOM     14  C   LIG    1        0.070  -4.805   0.227  0.00  0.00    +0.114 C 
BRANCH  14  15
ATOM     15  C   LIG    1        0.092  -6.191   0.818  0.00  0.00    -0.009 A 
ATOM     16  C   LIG    1        1.318  -6.820   1.095  0.00  0.00    +0.075 A 
ATOM     17  C   LIG    1        1.315  -8.123   1.651  0.00  0.00    +0.003 A 
ATOM     18  C   LIG    1        2.544  -8.751   1.927  0.00  0.00    +0.011 A 
ATOM     19  C   LIG    1        3.693  -8.070   1.643  0.00  0.00    +0.020 A 
ATOM     20  C   LIG    1        3.626  -6.790   1.097  0.00  0.00    +0.111 A 
ATOM     21  C   LIG    1        0.093  -8.762   1.916  0.00  0.00    +0.048 A 
ATOM     22  C   LIG    1       -1.077  -8.120   1.635  0.00  0.00    +0.124 A 
ATOM     23  F   LIG    1       -2.253  -8.734   1.891  0.00  0.00    -0.205 F 
ATOM     24  N   LIG    1        2.480  -6.208   0.841  0.00  0.00    -0.255 NA
ATOM     25  C   LIG    1       -1.075  -6.835   1.092  0.00  0.00    +0.045 A 
ENDBRANCH  14  15
ENDBRANCH   1  14
TORSDOF 5
