REMARK  Name = ZINC000012972388
REMARK                            x       y       z     vdW  Elec       q    Type
REMARK                         _______ _______ _______ _____ _____    ______ ____
ROOT
ATOM      1  S   LIG    1        2.165  -1.916   3.307  0.00  0.00    +0.060 S 
ATOM      2  O   LIG    1        2.603  -3.114   3.933  0.00  0.00    -0.153 OA
ATOM      3  O   LIG    1        1.396  -1.900   2.112  0.00  0.00    -0.153 OA
ENDROOT
BRANCH   1   4
ATOM      4  C   LIG    1        1.228  -1.038   4.513  0.00  0.00    +0.126 A 
ATOM      5  C   LIG    1        1.678  -0.791   5.781  0.00  0.00    +0.122 A 
ATOM      6  S   LIG    1        0.447   0.100   6.664  0.00  0.00    -0.088 S 
ATOM      7  C   LIG    1       -0.589   0.105   5.308  0.00  0.00    +0.048 A 
ATOM      8  C   LIG    1       -0.028  -0.534   4.275  0.00  0.00    +0.037 A 
BRANCH   5   9
ATOM      9  C   LIG    1        2.975  -1.207   6.318  0.00  0.00    +0.348 C 
ATOM     10  O   LIG    1        3.799  -1.722   5.587  0.00  0.00    -0.244 OA
BRANCH   9  11
ATOM     11  O   LIG    1        3.256  -1.018   7.624  0.00  0.00    -0.464 OA
ATOM     12  C   LIG    1        4.561  -1.455   8.087  0.00  0.00    +0.280 C 
ENDBRANCH   9  11
ENDBRANCH   5   9
ENDBRANCH   1   4
BRANCH   1  13
ATOM     13  N   LIG    1        3.526  -1.025   2.999  0.00  0.00    -0.182 NA
ATOM     14  H   LIG    1        4.399  -1.375   3.237  0.00  0.00    +0.149 HD
BRANCH  13  15
ATOM     15  C   LIG    1        3.412   0.292   2.368  0.00  0.00    +0.110 C 
ATOM     16  C   LIG    1        4.458   1.243   2.964  0.00  0.00    +0.025 C 
ATOM     17  C   LIG    1        4.518   2.524   2.127  0.00  0.00    +0.010 C 
ATOM     18  C   LIG    1        5.143   2.215   0.761  0.00  0.00    +0.075 C 
ATOM     19  C   LIG    1        4.437   1.018   0.173  0.00  0.00    +0.110 A 
ATOM     20  O   LIG    1        4.444   0.605  -1.101  0.00  0.00    -0.467 OA
ATOM     21  C   LIG    1        3.688  -0.501  -1.216  0.00  0.00    +0.195 A 
ATOM     22  C   LIG    1        3.187  -0.806  -0.003  0.00  0.00    +0.046 A 
ATOM     23  C   LIG    1        3.670   0.169   0.888  0.00  0.00    +0.012 A 
ENDBRANCH  13  15
ENDBRANCH   1  13
TORSDOF 5
