REMARK  Name = ZINC000058193095
REMARK                            x       y       z     vdW  Elec       q    Type
REMARK                         _______ _______ _______ _____ _____    ______ ____
ROOT
ATOM      1  N   LIG    1        4.220  -0.727   0.073  0.00  0.00    -0.303 N 
ATOM      2  H   LIG    1        4.529  -1.045   0.936  0.00  0.00    +0.150 HD
ATOM      3  C   LIG    1        5.097  -0.559  -0.936  0.00  0.00    +0.247 C 
ATOM      4  O   LIG    1        4.710  -0.160  -2.018  0.00  0.00    -0.270 OA
ENDROOT
BRANCH   3   5
ATOM      5  C   LIG    1        6.526  -0.860  -0.730  0.00  0.00    +0.074 A 
ATOM      6  C   LIG    1        7.120  -1.328   0.464  0.00  0.00    +0.147 A 
ATOM      7  N   LIG    1        8.398  -1.477   0.248  0.00  0.00    -0.174 NA
ATOM      8  N   LIG    1        8.681  -1.108  -1.071  0.00  0.00    -0.238 N 
ATOM      9  C   LIG    1        7.534  -0.732  -1.664  0.00  0.00    +0.127 A 
BRANCH   8  10
ATOM     10  C   LIG    1        9.947  -1.127  -1.674  0.00  0.00    +0.084 A 
ATOM     11  C   LIG    1       11.058  -1.538  -0.948  0.00  0.00    +0.066 A 
ATOM     12 CL   LIG    1       10.880  -2.037   0.706  0.00  0.00    -0.081 Cl
ATOM     13  C   LIG    1       12.303  -1.562  -1.547  0.00  0.00    +0.022 A 
ATOM     14  C   LIG    1       12.445  -1.164  -2.864  0.00  0.00    +0.002 A 
ATOM     15  C   LIG    1       11.343  -0.749  -3.587  0.00  0.00    +0.002 A 
ATOM     16  C   LIG    1       10.094  -0.729  -2.995  0.00  0.00    +0.029 A 
ENDBRANCH   8  10
ENDBRANCH   3   5
BRANCH   1  17
ATOM     17  C   LIG    1        2.801  -0.427  -0.132  0.00  0.00    +0.200 C 
BRANCH  17  18
ATOM     18  C   LIG    1        2.042  -0.696   1.142  0.00  0.00    +0.233 C 
ATOM     19  O   LIG    1        2.628  -1.097   2.124  0.00  0.00    -0.274 OA
ATOM     20  N   LIG    1        0.711  -0.489   1.189  0.00  0.00    -0.301 N 
BRANCH  20  21
ATOM     21  C   LIG    1       -0.028  -0.750   2.427  0.00  0.00    +0.104 C 
ATOM     22  C   LIG    1       -0.511  -2.202   2.437  0.00  0.00    +0.024 C 
ENDBRANCH  20  21
BRANCH  20  23
ATOM     23  C   LIG    1        0.002  -0.004   0.002  0.00  0.00    +0.104 C 
ATOM     24  C   LIG    1       -0.019   1.526   0.010  0.00  0.00    +0.024 C 
ENDBRANCH  20  23
ENDBRANCH  17  18
ENDBRANCH   1  17
TORSDOF 6
