REMARK  Name = ZINC000069618186
REMARK                            x       y       z     vdW  Elec       q    Type
REMARK                         _______ _______ _______ _____ _____    ______ ____
ROOT
ATOM      1  C   LIG    1        0.414  -2.980  -4.268  0.00  0.00    +0.218 C 
ATOM      2  O   LIG    1        0.421  -4.030  -3.662  0.00  0.00    -0.275 OA
ATOM      3  N   LIG    1        1.098  -2.865  -5.424  0.00  0.00    -0.314 N 
ATOM      4  H   LIG    1        1.153  -2.006  -5.871  0.00  0.00    +0.149 HD
ENDROOT
BRANCH   1   5
ATOM      5  C   LIG    1       -0.358  -1.804  -3.729  0.00  0.00    +0.092 C 
ATOM      6  C   LIG    1       -1.164  -2.240  -2.504  0.00  0.00    +0.016 C 
ATOM      7  C   LIG    1       -1.976  -1.054  -1.976  0.00  0.00    +0.020 C 
ATOM      8  C   LIG    1       -1.019   0.065  -1.552  0.00  0.00    +0.111 C 
ATOM      9  N   LIG    1       -0.141   0.391  -2.684  0.00  0.00    -0.267 N 
ATOM     10  C   LIG    1       -0.033   1.659  -3.126  0.00  0.00    +0.403 C 
ATOM     11  O   LIG    1        0.693   1.915  -4.067  0.00  0.00    -0.226 OA
ATOM     12  C   LIG    1        0.611  -0.694  -3.329  0.00  0.00    +0.123 C 
BRANCH  10  13
ATOM     13  O   LIG    1       -0.729   2.643  -2.526  0.00  0.00    -0.454 OA
ATOM     14  C   LIG    1       -0.563   3.985  -3.055  0.00  0.00    +0.282 C 
ENDBRANCH  10  13
ENDBRANCH   1   5
BRANCH   3  15
ATOM     15  C   LIG    1        1.758  -4.037  -6.004  0.00  0.00    +0.115 C 
BRANCH  15  16
ATOM     16  C   LIG    1        2.559  -3.612  -7.237  0.00  0.00    +0.015 C 
ATOM     17  C   LIG    1        1.777  -3.077  -8.438  0.00  0.00    +0.014 C 
ATOM     18  C   LIG    1        2.417  -4.465  -8.499  0.00  0.00    +0.014 C 
BRANCH  16  19
ATOM     19  C   LIG    1        3.908  -3.002  -6.957  0.00  0.00    +0.002 A 
ATOM     20  C   LIG    1        4.912  -3.768  -6.382  0.00  0.00    +0.124 A 
ATOM     21  C   LIG    1        6.154  -3.205  -6.131  0.00  0.00    +0.046 A 
ATOM     22  C   LIG    1        6.386  -1.879  -6.444  0.00  0.00    +0.004 A 
ATOM     23  C   LIG    1        5.383  -1.116  -7.011  0.00  0.00    +0.001 A 
ATOM     24  C   LIG    1        4.145  -1.677  -7.268  0.00  0.00    +0.008 A 
BRANCH  20  25
ATOM     25  O   LIG    1        4.681  -5.072  -6.075  0.00  0.00    -0.495 OA
ATOM     26  C   LIG    1        5.725  -5.773  -5.397  0.00  0.00    +0.277 C 
ENDBRANCH  20  25
ENDBRANCH  16  19
ENDBRANCH  15  16
ENDBRANCH   3  15
TORSDOF 6
