REMARK  Name = ZINC000084735504
REMARK                            x       y       z     vdW  Elec       q    Type
REMARK                         _______ _______ _______ _____ _____    ______ ____
ROOT
ATOM      1  C   LIG    1       -2.628  -2.320   2.502  0.00  0.00    +0.136 C 
ATOM      2  O   LIG    1       -1.354  -1.715   2.272  0.00  0.00    -0.371 OA
ATOM      3  C   LIG    1       -0.627  -2.279   1.178  0.00  0.00    +0.133 C 
ATOM      4  C   LIG    1       -0.432  -3.778   1.412  0.00  0.00    +0.039 C 
ATOM      5  C   LIG    1       -1.416  -2.062  -0.119  0.00  0.00    +0.140 C 
ATOM      6  N   LIG    1       -2.786  -2.560   0.083  0.00  0.00    -0.281 N 
ATOM      7  C   LIG    1       -3.352  -3.409  -0.798  0.00  0.00    +0.302 C 
ATOM      8  N   LIG    1       -4.568  -3.932  -0.545  0.00  0.00    -0.299 N 
ATOM      9  H   LIG    1       -5.068  -3.641   0.234  0.00  0.00    +0.150 HD
ATOM     10  O   LIG    1       -2.765  -3.703  -1.822  0.00  0.00    -0.253 OA
ATOM     11  C   LIG    1       -3.520  -2.105   1.274  0.00  0.00    +0.141 C 
ENDROOT
BRANCH   1  12
ATOM     12  C   LIG    1       -3.284  -1.680   3.728  0.00  0.00    +0.030 C 
ATOM     13  C   LIG    1       -2.456  -1.999   4.974  0.00  0.00    +0.006 C 
ENDBRANCH   1  12
BRANCH   8  14
ATOM     14  C   LIG    1       -5.135  -4.938  -1.446  0.00  0.00    +0.106 C 
BRANCH  14  15
ATOM     15  C   LIG    1       -6.513  -5.362  -0.934  0.00  0.00    +0.020 C 
BRANCH  15  16
ATOM     16  C   LIG    1       -7.105  -6.413  -1.874  0.00  0.00    +0.023 C 
BRANCH  16  17
ATOM     17  C   LIG    1       -8.483  -6.838  -1.362  0.00  0.00    +0.125 C 
BRANCH  17  18
ATOM     18  N   LIG    1       -9.050  -7.844  -2.263  0.00  0.00    -0.313 N 
ATOM     19  C   LIG    1       -8.809  -9.161  -2.036  0.00  0.00    +0.019 A 
ATOM     20  C   LIG    1       -7.965  -9.571  -0.856  0.00  0.00    +0.063 C 
ATOM     21  C   LIG    1       -9.326 -10.109  -2.851  0.00  0.00    +0.021 A 
ATOM     22  C   LIG    1      -10.111  -9.735  -3.951  0.00  0.00    +0.007 A 
ATOM     23  C   LIG    1      -10.348  -8.411  -4.181  0.00  0.00    +0.070 A 
ATOM     24  C   LIG    1       -9.800  -7.453  -3.311  0.00  0.00    +0.251 A 
ATOM     25  O   LIG    1      -10.004  -6.265  -3.505  0.00  0.00    -0.268 OA
ENDBRANCH  17  18
ENDBRANCH  16  17
ENDBRANCH  15  16
ENDBRANCH  14  15
ENDBRANCH   8  14
TORSDOF 6
