REMARK  Name = ZINC000025732442
REMARK                            x       y       z     vdW  Elec       q    Type
REMARK                         _______ _______ _______ _____ _____    ______ ____
ROOT
ATOM      1  C   LIG    1        2.500  -2.562   4.340  0.00  0.00    +0.247 C 
ATOM      2  N   LIG    1        3.163  -1.823   5.251  0.00  0.00    -0.295 N 
ATOM      3  C   LIG    1        3.936  -2.470   6.321  0.00  0.00    +0.127 C 
ATOM      4  C   LIG    1        3.449  -1.943   7.671  0.00  0.00    +0.127 C 
ATOM      5  N   LIG    1        3.408  -0.475   7.617  0.00  0.00    -0.298 N 
ATOM      6  C   LIG    1        4.070   0.264   8.528  0.00  0.00    +0.219 C 
ATOM      7  O   LIG    1        3.956   1.471   8.529  0.00  0.00    -0.275 OA
ATOM      8  C   LIG    1        2.631   0.172   6.551  0.00  0.00    +0.127 C 
ATOM      9  C   LIG    1        3.122  -0.355   5.197  0.00  0.00    +0.127 C 
ATOM     10  O   LIG    1        2.455  -3.772   4.455  0.00  0.00    -0.270 OA
ENDROOT
BRANCH   1  11
ATOM     11  C   LIG    1        1.828  -1.903   3.203  0.00  0.00    +0.041 A 
ATOM     12  C   LIG    1        0.645  -2.436   2.684  0.00  0.00    +0.062 A 
ATOM     13  C   LIG    1        0.017  -1.812   1.624  0.00  0.00    +0.162 A 
ATOM     14  C   LIG    1        0.570  -0.660   1.066  0.00  0.00    +0.162 A 
ATOM     15  C   LIG    1        1.745  -0.132   1.581  0.00  0.00    +0.050 A 
ATOM     16  C   LIG    1        2.374  -0.746   2.643  0.00  0.00    +0.017 A 
BRANCH  13  17
ATOM     17  O   LIG    1       -1.135  -2.328   1.117  0.00  0.00    -0.491 OA
ATOM     18  C   LIG    1       -1.639  -3.516   1.731  0.00  0.00    +0.277 C 
ENDBRANCH  13  17
BRANCH  14  19
ATOM     19  O   LIG    1       -0.046  -0.051   0.020  0.00  0.00    -0.491 OA
ATOM     20  C   LIG    1        0.575   1.125  -0.503  0.00  0.00    +0.277 C 
ENDBRANCH  14  19
ENDBRANCH   1  11
BRANCH   6  21
ATOM     21  C   LIG    1        4.952  -0.410   9.548  0.00  0.00    +0.075 C 
ATOM     22  C   LIG    1        4.169  -0.670  10.851  0.00  0.00    +0.013 C 
ATOM     23  C   LIG    1        5.150  -0.421  12.010  0.00  0.00    +0.001 C 
ATOM     24  C   LIG    1        6.495  -0.018  11.371  0.00  0.00    +0.001 C 
ATOM     25  C   LIG    1        6.102   0.534   9.978  0.00  0.00    +0.013 C 
ENDBRANCH   6  21
TORSDOF 4
