REMARK  Name = ZINC000025875184
REMARK                            x       y       z     vdW  Elec       q    Type
REMARK                         _______ _______ _______ _____ _____    ______ ____
ROOT
ATOM      1  C   LIG    1       -1.327  -3.312  -0.011  0.00  0.00    +0.023 A 
ATOM      2  C   LIG    1       -2.721  -3.266  -0.010  0.00  0.00    +0.015 A 
ATOM      3  C   LIG    1       -3.448  -4.438  -0.014  0.00  0.00    +0.049 A 
ATOM      4  C   LIG    1       -2.793  -5.662  -0.019  0.00  0.00    +0.157 A 
ATOM      5  C   LIG    1       -1.406  -5.711  -0.020  0.00  0.00    +0.049 A 
ATOM      6  C   LIG    1       -0.673  -4.543  -0.022  0.00  0.00    +0.015 A 
ENDROOT
BRANCH   1   7
ATOM      7  C   LIG    1       -0.542  -2.053  -0.007  0.00  0.00    +0.202 A 
ATOM      8  N   LIG    1       -1.041  -0.796   0.002  0.00  0.00    -0.192 NA
ATOM      9  C   LIG    1        0.002  -0.004   0.002  0.00  0.00    +0.225 A 
ATOM     10  C   LIG    1       -0.018   1.503   0.010  0.00  0.00    +0.112 C 
ATOM     11  O   LIG    1        1.088  -0.783  -0.013  0.00  0.00    -0.338 OA
ATOM     12  N   LIG    1        0.762  -1.951  -0.013  0.00  0.00    -0.056 NA
ENDBRANCH   1   7
BRANCH   4  13
ATOM     13  O   LIG    1       -3.512  -6.815  -0.023  0.00  0.00    -0.342 OA
BRANCH  13  14
ATOM     14  S   LIG    1       -3.840  -7.335  -1.415  0.00  0.00    +0.156 S 
ATOM     15  O   LIG    1       -4.750  -8.412  -1.238  0.00  0.00    -0.131 OA
ATOM     16  O   LIG    1       -4.132  -6.194  -2.211  0.00  0.00    -0.131 OA
BRANCH  14  17
ATOM     17  C   LIG    1       -2.363  -8.035  -2.073  0.00  0.00    +0.192 A 
ATOM     18  C   LIG    1       -1.908  -9.369  -1.963  0.00  0.00    +0.109 A 
ATOM     19  C   LIG    1       -2.602 -10.504  -1.255  0.00  0.00    +0.071 C 
ATOM     20  N   LIG    1       -0.776  -9.425  -2.603  0.00  0.00    -0.081 NA
ATOM     21  O   LIG    1       -0.474  -8.350  -3.069  0.00  0.00    -0.358 OA
ATOM     22  C   LIG    1       -1.397  -7.418  -2.794  0.00  0.00    +0.163 A 
ATOM     23  C   LIG    1       -1.365  -5.968  -3.207  0.00  0.00    +0.091 C 
ENDBRANCH  14  17
ENDBRANCH  13  14
ENDBRANCH   4  13
TORSDOF 4
