REMARK  Name = ZINC000095988639
REMARK                            x       y       z     vdW  Elec       q    Type
REMARK                         _______ _______ _______ _____ _____    ______ ____
ROOT
ATOM      1  C   LIG    1       -2.539  -4.171   0.016  0.00  0.00    +0.119 C 
ATOM      2  N   LIG    1       -3.647  -4.635   0.860  0.00  0.00    -0.291 N 
ATOM      3  C   LIG    1       -4.705  -5.005   0.113  0.00  0.00    +0.217 C 
ATOM      4  O   LIG    1       -5.755  -5.421   0.555  0.00  0.00    -0.276 OA
ATOM      5  C   LIG    1       -4.392  -4.829  -1.356  0.00  0.00    +0.111 C 
ATOM      6  C   LIG    1       -2.853  -4.693  -1.403  0.00  0.00    +0.111 C 
ENDROOT
BRANCH   1   7
ATOM      7  C   LIG    1       -2.479  -2.665   0.017  0.00  0.00    -0.023 A 
ATOM      8  C   LIG    1       -3.648  -1.927   0.026  0.00  0.00    +0.006 A 
ATOM      9  C   LIG    1       -3.596  -0.545   0.027  0.00  0.00    +0.004 A 
ATOM     10  C   LIG    1       -2.374   0.101   0.019  0.00  0.00    +0.045 A 
ATOM     11  C   LIG    1       -1.200  -0.637   0.010  0.00  0.00    +0.120 A 
ATOM     12  C   LIG    1       -1.255  -2.024   0.003  0.00  0.00    +0.051 A 
BRANCH  11  13
ATOM     13  O   LIG    1        0.002  -0.004   0.002  0.00  0.00    -0.495 OA
ATOM     14  C   LIG    1       -0.017   1.425   0.010  0.00  0.00    +0.277 C 
ENDBRANCH  11  13
ENDBRANCH   1   7
BRANCH   6  15
ATOM     15  C   LIG    1       -2.200  -6.029  -1.643  0.00  0.00    +0.234 A 
ATOM     16  O   LIG    1       -2.408  -7.152  -0.948  0.00  0.00    -0.336 OA
ATOM     17  N   LIG    1       -1.729  -8.050  -1.398  0.00  0.00    -0.040 NA
ATOM     18  C   LIG    1       -1.018  -7.616  -2.404  0.00  0.00    +0.258 A 
ATOM     19  N   LIG    1       -1.316  -6.309  -2.570  0.00  0.00    -0.178 NA
BRANCH  18  20
ATOM     20  N   LIG    1       -0.122  -8.358  -3.161  0.00  0.00    -0.303 N 
ATOM     21  C   LIG    1        0.096  -9.775  -2.857  0.00  0.00    +0.132 C 
ATOM     22  C   LIG    1        0.606  -7.726  -4.264  0.00  0.00    +0.132 C 
ENDBRANCH  18  20
ENDBRANCH   6  15
BRANCH   2  23
ATOM     23  C   LIG    1       -3.609  -4.689   2.323  0.00  0.00    +0.077 C 
ATOM     24  C   LIG    1       -4.916  -5.005   3.053  0.00  0.00    +0.024 C 
ATOM     25  C   LIG    1       -3.805  -6.054   2.986  0.00  0.00    +0.024 C 
ENDBRANCH   2  23
TORSDOF 5
