REMARK  Name = ZINC000058193736
REMARK                            x       y       z     vdW  Elec       q    Type
REMARK                         _______ _______ _______ _____ _____    ______ ____
ROOT
ATOM      1  S   LIG    1       -2.744  -4.582   4.489  0.00  0.00    +0.061 S 
ATOM      2  O   LIG    1       -2.413  -5.572   5.453  0.00  0.00    -0.153 OA
ATOM      3  O   LIG    1       -3.266  -3.306   4.832  0.00  0.00    -0.153 OA
ENDROOT
BRANCH   1   4
ATOM      4  C   LIG    1       -3.914  -5.322   3.398  0.00  0.00    +0.143 A 
ATOM      5  C   LIG    1       -4.074  -6.693   3.170  0.00  0.00    +0.163 A 
ATOM      6  N   LIG    1       -5.040  -6.853   2.301  0.00  0.00    -0.173 NA
ATOM      7  N   LIG    1       -5.521  -5.588   1.942  0.00  0.00    -0.238 N 
ATOM      8  C   LIG    1       -4.813  -4.663   2.630  0.00  0.00    +0.143 A 
BRANCH   7   9
ATOM      9  C   LIG    1       -6.553  -5.326   1.031  0.00  0.00    +0.065 A 
ATOM     10  C   LIG    1       -6.927  -4.016   0.761  0.00  0.00    +0.028 A 
ATOM     11  C   LIG    1       -7.944  -3.761  -0.137  0.00  0.00    +0.002 A 
ATOM     12  C   LIG    1       -8.590  -4.808  -0.768  0.00  0.00    +0.000 A 
ATOM     13  C   LIG    1       -8.220  -6.114  -0.502  0.00  0.00    +0.002 A 
ATOM     14  C   LIG    1       -7.199  -6.375   0.391  0.00  0.00    +0.028 A 
ENDBRANCH   7   9
ENDBRANCH   1   4
BRANCH   1  15
ATOM     15  N   LIG    1       -1.366  -4.303   3.613  0.00  0.00    -0.189 NA
ATOM     16  H   LIG    1       -0.547  -4.774   3.834  0.00  0.00    +0.148 HD
BRANCH  15  17
ATOM     17  C   LIG    1       -1.384  -3.345   2.505  0.00  0.00    +0.112 C 
BRANCH  17  18
ATOM     18  C   LIG    1        0.052  -2.992   2.113  0.00  0.00    +0.079 C 
BRANCH  18  19
ATOM     19  C   LIG    1        0.034  -2.006   0.973  0.00  0.00    +0.080 A 
ATOM     20  N   LIG    1        0.022  -0.723   1.106  0.00  0.00    -0.249 NA
ATOM     21  C   LIG    1        0.002  -0.004   0.002  0.00  0.00    +0.046 A 
ATOM     22  C   LIG    1       -0.018   1.503   0.010  0.00  0.00    +0.066 C 
ATOM     23  C   LIG    1        0.007  -0.721  -1.126  0.00  0.00    +0.070 A 
ATOM     24  S   LIG    1        0.032  -2.426  -0.684  0.00  0.00    -0.080 S 
ENDBRANCH  18  19
ENDBRANCH  17  18
ENDBRANCH  15  17
ENDBRANCH   1  15
TORSDOF 6
