REMARK  Name = ZINC000069602043
REMARK                            x       y       z     vdW  Elec       q    Type
REMARK                         _______ _______ _______ _____ _____    ______ ____
ROOT
ATOM      1  O   LIG    1       -0.290   0.328   0.797  0.00  0.00    -0.270 OA
ATOM      2  C   LIG    1       -0.014   1.212   0.009  0.00  0.00    +0.252 C 
ATOM      3  N   LIG    1       -0.835   1.470  -1.029  0.00  0.00    -0.290 N 
ATOM      4  C   LIG    1       -2.124   0.782  -1.173  0.00  0.00    +0.105 C 
ATOM      5  C   LIG    1       -2.246  -0.345  -0.149  0.00  0.00    +0.025 C 
ATOM      6  C   LIG    1       -3.612  -1.015  -0.328  0.00  0.00    +0.002 C 
ATOM      7  C   LIG    1       -3.737  -1.576  -1.745  0.00  0.00    +0.003 C 
ATOM      8  C   LIG    1       -3.567  -0.451  -2.771  0.00  0.00    +0.033 C 
ATOM      9  C   LIG    1       -2.194   0.188  -2.581  0.00  0.00    +0.139 C 
ATOM     10  O   LIG    1       -1.965   1.223  -3.535  0.00  0.00    -0.373 OA
ATOM     11  C   LIG    1       -0.660   1.805  -3.445  0.00  0.00    +0.179 C 
ATOM     12  C   LIG    1       -0.473   2.450  -2.068  0.00  0.00    +0.136 C 
ENDROOT
BRANCH   2  13
ATOM     13  C   LIG    1        1.218   1.996   0.184  0.00  0.00    +0.101 A 
ATOM     14  C   LIG    1        2.426   1.364   0.469  0.00  0.00    +0.020 A 
ATOM     15  C   LIG    1        3.574   2.140   0.628  0.00  0.00    +0.031 A 
ATOM     16  C   LIG    1        3.505   3.490   0.507  0.00  0.00    +0.123 A 
ATOM     17  N   LIG    1        2.334   4.112   0.231  0.00  0.00    -0.318 N 
ATOM     18  H   LIG    1        2.314   5.079   0.150  0.00  0.00    +0.169 HD
ATOM     19  C   LIG    1        1.198   3.410   0.062  0.00  0.00    +0.261 A 
ATOM     20  O   LIG    1        0.153   3.987  -0.186  0.00  0.00    -0.267 OA
BRANCH  16  21
ATOM     21  C   LIG    1        4.755   4.313   0.683  0.00  0.00    +0.432 C 
ATOM     22  F   LIG    1        4.580   5.207   1.745  0.00  0.00    -0.164 F 
ATOM     23  F   LIG    1        5.835   3.467   0.959  0.00  0.00    -0.164 F 
ATOM     24  F   LIG    1        5.012   5.029  -0.492  0.00  0.00    -0.164 F 
ENDBRANCH  16  21
ENDBRANCH   2  13
TORSDOF 2
