REMARK  Name = ZINC000095993419
REMARK                            x       y       z     vdW  Elec       q    Type
REMARK                         _______ _______ _______ _____ _____    ______ ____
ROOT
ATOM      1  C   LIG    1        0.172   1.630   0.400  0.00  0.00    +0.009 C 
ATOM      2  C   LIG    1        0.061   0.126   0.141  0.00  0.00    +0.009 C 
ATOM      3  C   LIG    1        0.772  -0.640   1.260  0.00  0.00    +0.104 C 
ATOM      4  N   LIG    1        0.545  -2.079   1.067  0.00  0.00    -0.296 N 
ATOM      5  C   LIG    1        1.583  -2.936   1.015  0.00  0.00    +0.220 C 
ATOM      6  O   LIG    1        2.720  -2.514   1.018  0.00  0.00    -0.275 OA
ATOM      7  C   LIG    1       -0.835  -2.564   0.931  0.00  0.00    +0.108 C 
ATOM      8  C   LIG    1       -1.527  -1.776  -0.185  0.00  0.00    +0.019 C 
ATOM      9  C   LIG    1       -1.414  -0.279   0.107  0.00  0.00    +0.007 C 
ENDROOT
BRANCH   3  10
ATOM     10  C   LIG    1        2.273  -0.347   1.215  0.00  0.00    +0.178 C 
BRANCH  10  11
ATOM     11  O   LIG    1        2.904  -0.913   2.365  0.00  0.00    -0.393 OA
ATOM     12  H   LIG    1        3.859  -0.766   2.403  0.00  0.00    +0.209 HD
ENDBRANCH  10  11
ENDBRANCH   3  10
BRANCH   5  13
ATOM     13  C   LIG    1        1.332  -4.421   0.954  0.00  0.00    +0.131 C 
BRANCH  13  14
ATOM     14  C   LIG    1        2.649  -5.152   0.904  0.00  0.00    -0.034 A 
ATOM     15  C   LIG    1        3.268  -5.539   2.077  0.00  0.00    +0.053 A 
ATOM     16  C   LIG    1        4.477  -6.217   2.034  0.00  0.00    +0.164 A 
ATOM     17  O   LIG    1        5.074  -6.593   3.198  0.00  0.00    -0.485 OA
ATOM     18  C   LIG    1        6.093  -7.594   3.105  0.00  0.00    +0.270 C 
ATOM     19  C   LIG    1        7.028  -7.221   1.946  0.00  0.00    +0.270 C 
ATOM     20  O   LIG    1        6.253  -7.167   0.744  0.00  0.00    -0.483 OA
ATOM     21  C   LIG    1        5.068  -6.499   0.809  0.00  0.00    +0.180 A 
ATOM     22  C   LIG    1        4.445  -6.102  -0.366  0.00  0.00    +0.086 A 
ATOM     23 CL   LIG    1        5.182  -6.449  -1.899  0.00  0.00    -0.080 Cl
ATOM     24  C   LIG    1        3.237  -5.429  -0.316  0.00  0.00    +0.028 A 
ENDBRANCH  13  14
ENDBRANCH   5  13
TORSDOF 4
