REMARK  Name = ZINC000000223129
REMARK                            x       y       z     vdW  Elec       q    Type
REMARK                         _______ _______ _______ _____ _____    ______ ____
ROOT
ATOM      1  C   LIG    1       -0.142   1.490   0.016  0.00  0.00    +0.046 C 
ATOM      2  C   LIG    1       -0.075  -0.015   0.004  0.00  0.00    -0.015 A 
ATOM      3  C   LIG    1       -0.046  -0.768   1.177  0.00  0.00    +0.076 A 
ATOM      4  C   LIG    1       -0.078  -0.328   2.587  0.00  0.00    +0.262 A 
ATOM      5  N   LIG    1       -0.049  -1.274   3.548  0.00  0.00    -0.302 N 
ATOM      6  C   LIG    1       -0.080  -0.879   4.958  0.00  0.00    +0.153 C 
ATOM      7  C   LIG    1        0.007  -2.587   3.216  0.00  0.00    +0.203 A 
ATOM      8  N   LIG    1        0.041  -2.997   1.984  0.00  0.00    -0.230 NA
ATOM      9  O   LIG    1       -0.129   0.856   2.873  0.00  0.00    -0.267 OA
ATOM     10  C   LIG    1        0.012  -2.145   0.941  0.00  0.00    +0.116 A 
ATOM     11  S   LIG    1        0.041  -2.442  -0.793  0.00  0.00    -0.062 S 
ATOM     12  C   LIG    1       -0.033  -0.722  -1.137  0.00  0.00    +0.102 A 
ENDROOT
BRANCH  12  13
ATOM     13  C   LIG    1       -0.046  -0.139  -2.480  0.00  0.00    +0.351 C 
ATOM     14  O   LIG    1       -0.099   1.068  -2.619  0.00  0.00    -0.244 OA
BRANCH  13  15
ATOM     15  O   LIG    1       -0.001  -0.941  -3.564  0.00  0.00    -0.422 OA
BRANCH  15  16
ATOM     16  C   LIG    1       -0.118  -0.366  -4.789  0.00  0.00    +0.132 A 
ATOM     17  C   LIG    1        0.966   0.301  -5.348  0.00  0.00    +0.047 A 
ATOM     18  C   LIG    1        0.851   0.886  -6.589  0.00  0.00    +0.022 A 
ATOM     19  C   LIG    1       -0.358   0.809  -7.287  0.00  0.00    +0.052 A 
ATOM     20  C   LIG    1       -1.445   0.137  -6.721  0.00  0.00    +0.022 A 
ATOM     21  C   LIG    1       -1.320  -0.450  -5.481  0.00  0.00    +0.047 A 
BRANCH  19  22
ATOM     22  C   LIG    1       -0.481   1.416  -8.578  0.00  0.00    +0.099 C 
ATOM     23  N   LIG    1       -0.580   1.897  -9.602  0.00  0.00    -0.191 NA
ENDBRANCH  19  22
ENDBRANCH  15  16
ENDBRANCH  13  15
ENDBRANCH  12  13
TORSDOF 4
