REMARK  Name = ZINC000095992470
REMARK                            x       y       z     vdW  Elec       q    Type
REMARK                         _______ _______ _______ _____ _____    ______ ____
ROOT
ATOM      1  N   LIG    1       -3.047   1.755   1.399  0.00  0.00    -0.295 NA
ATOM      2  C   LIG    1       -1.963   1.168   2.200  0.00  0.00    +0.100 C 
ATOM      3  C   LIG    1       -2.408   1.068   3.661  0.00  0.00    +0.100 C 
ATOM      4  N   LIG    1       -3.624   0.247   3.744  0.00  0.00    -0.295 NA
ATOM      5  C   LIG    1       -4.708   0.834   2.944  0.00  0.00    +0.100 C 
ATOM      6  C   LIG    1       -4.263   0.935   1.483  0.00  0.00    +0.100 C 
ENDROOT
BRANCH   4   7
ATOM      7  C   LIG    1       -4.040   0.064   5.141  0.00  0.00    +0.145 C 
BRANCH   7   8
ATOM      8  C   LIG    1       -3.147  -0.984   5.806  0.00  0.00    +0.264 C 
ATOM      9  O   LIG    1       -1.797  -0.496   5.900  0.00  0.00    -0.348 OA
ATOM     10  C   LIG    1       -0.925  -1.623   5.698  0.00  0.00    +0.191 C 
ATOM     11  C   LIG    1       -1.867  -2.818   5.433  0.00  0.00    +0.191 C 
ATOM     12  O   LIG    1       -3.088  -2.175   4.993  0.00  0.00    -0.348 OA
ENDBRANCH   7   8
ENDBRANCH   4   7
BRANCH   1  13
ATOM     13  C   LIG    1       -2.630   1.938   0.003  0.00  0.00    +0.128 C 
BRANCH  13  14
ATOM     14  C   LIG    1       -1.261   2.567  -0.035  0.00  0.00    +0.018 A 
ATOM     15  C   LIG    1       -0.107   1.897  -0.048  0.00  0.00    +0.029 A 
ATOM     16 BR   LIG    1       -0.027   0.008  -0.021  0.00  0.00    -0.049 Br
ATOM     17  C   LIG    1        1.027   2.691  -0.078  0.00  0.00    +0.023 A 
ATOM     18  C   LIG    1        0.794   4.004  -0.098  0.00  0.00    +0.046 A 
ATOM     19  S   LIG    1       -0.941   4.296  -0.068  0.00  0.00    -0.099 S 
ENDBRANCH  13  14
ENDBRANCH   1  13
TORSDOF 4
