REMARK  Name = ZINC000012975250
REMARK                            x       y       z     vdW  Elec       q    Type
REMARK                         _______ _______ _______ _____ _____    ______ ____
ROOT
ATOM      1  C   LIG    1        0.931   0.818   2.994  0.00  0.00    +0.101 C 
ENDROOT
BRANCH   1   2
ATOM      2  C   LIG    1        0.583   1.615   4.226  0.00  0.00    +0.218 C 
ATOM      3  N   LIG    1        1.537   2.323   4.862  0.00  0.00    -0.285 N 
ATOM      4  H   LIG    1        2.460   2.267   4.568  0.00  0.00    +0.155 HD
ATOM      5  O   LIG    1       -0.555   1.618   4.644  0.00  0.00    -0.275 OA
BRANCH   3   6
ATOM      6  C   LIG    1        1.197   3.139   5.946  0.00  0.00    +0.034 A 
ATOM      7  C   LIG    1        0.194   2.749   6.824  0.00  0.00    +0.023 A 
ATOM      8  C   LIG    1       -0.138   3.558   7.891  0.00  0.00    +0.006 A 
ATOM      9  C   LIG    1        0.524   4.758   8.091  0.00  0.00    -0.044 A 
ATOM     10  C   LIG    1        0.347   5.807   9.169  0.00  0.00    +0.036 C 
ATOM     11  C   LIG    1        1.631   6.662   9.116  0.00  0.00    +0.009 C 
ATOM     12  C   LIG    1        2.085   6.488   7.651  0.00  0.00    +0.036 C 
ATOM     13  C   LIG    1        1.523   5.150   7.218  0.00  0.00    -0.042 A 
ATOM     14  C   LIG    1        1.863   4.339   6.150  0.00  0.00    +0.027 A 
ENDBRANCH   3   6
ENDBRANCH   1   2
BRANCH   1  15
ATOM     15  C   LIG    1       -0.322   0.113   2.472  0.00  0.00    +0.048 C 
BRANCH  15  16
ATOM     16  C   LIG    1        0.026  -0.684   1.241  0.00  0.00    -0.006 C 
ATOM     17  C   LIG    1        0.318  -1.982   1.397  0.00  0.00    +0.029 C 
ATOM     18  C   LIG    1        0.270  -2.608   2.767  0.00  0.00    +0.062 C 
ATOM     19  N   LIG    1        0.667  -2.744   0.301  0.00  0.00    -0.205 N 
ATOM     20  H   LIG    1        1.266  -3.503   0.378  0.00  0.00    +0.175 HD
ATOM     21  S   LIG    1        0.009  -2.294  -1.162  0.00  0.00    +0.151 S 
ATOM     22  N   LIG    1        0.017  -0.631  -1.139  0.00  0.00    -0.120 NA
ATOM     23  O   LIG    1       -1.354  -2.698  -1.140  0.00  0.00    -0.131 OA
ATOM     24  O   LIG    1        0.928  -2.695  -2.168  0.00  0.00    -0.131 OA
ATOM     25  C   LIG    1        0.012  -0.019   0.006  0.00  0.00    +0.066 C 
ATOM     26  C   LIG    1       -0.003   1.488   0.008  0.00  0.00    +0.067 C 
ENDBRANCH  15  16
ENDBRANCH   1  15
TORSDOF 4
