REMARK  Name = ZINC000095987628
REMARK                            x       y       z     vdW  Elec       q    Type
REMARK                         _______ _______ _______ _____ _____    ______ ____
ROOT
ATOM      1  N   LIG    1        2.873  -0.545  -2.413  0.00  0.00    -0.297 N 
ATOM      2  C   LIG    1        4.184  -0.286  -2.587  0.00  0.00    +0.300 C 
ATOM      3  O   LIG    1        4.798   0.340  -1.745  0.00  0.00    -0.253 OA
ATOM      4  N   LIG    1        4.815  -0.721  -3.696  0.00  0.00    -0.294 N 
ATOM      5  H   LIG    1        4.325  -1.220  -4.369  0.00  0.00    +0.151 HD
ATOM      6  H   LIG    1        2.384  -1.045  -3.085  0.00  0.00    +0.150 HD
ENDROOT
BRANCH   4   7
ATOM      7  C   LIG    1        6.240  -0.439  -3.886  0.00  0.00    +0.110 C 
ATOM      8  C   LIG    1        6.433   0.924  -4.593  0.00  0.00    +0.053 C 
ATOM      9  C   LIG    1        7.590   0.618  -5.579  0.00  0.00    +0.162 C 
ATOM     10  O   LIG    1        7.315  -0.732  -6.011  0.00  0.00    -0.370 OA
ATOM     11  C   LIG    1        6.868  -1.462  -4.853  0.00  0.00    +0.169 C 
BRANCH  11  12
ATOM     12  C   LIG    1        5.839  -2.486  -5.259  0.00  0.00    -0.014 A 
ATOM     13  C   LIG    1        5.765  -3.693  -4.589  0.00  0.00    +0.047 A 
ATOM     14  C   LIG    1        4.818  -4.632  -4.958  0.00  0.00    +0.159 A 
ATOM     15  F   LIG    1        4.741  -5.810  -4.301  0.00  0.00    -0.202 F 
ATOM     16  C   LIG    1        3.950  -4.364  -6.007  0.00  0.00    +0.158 A 
ATOM     17  F   LIG    1        3.028  -5.282  -6.372  0.00  0.00    -0.202 F 
ATOM     18  C   LIG    1        4.031  -3.157  -6.678  0.00  0.00    +0.041 A 
ATOM     19  C   LIG    1        4.975  -2.220  -6.304  0.00  0.00    +0.009 A 
ENDBRANCH  11  12
ENDBRANCH   4   7
BRANCH   1  20
ATOM     20  C   LIG    1        2.187  -0.073  -1.207  0.00  0.00    +0.137 C 
BRANCH  20  21
ATOM     21  C   LIG    1        0.718  -0.497  -1.257  0.00  0.00    +0.134 C 
BRANCH  21  22
ATOM     22  C   LIG    1        0.002  -0.004   0.002  0.00  0.00    +0.013 C 
ATOM     23  C   LIG    1       -1.433  -0.534   0.013  0.00  0.00    +0.010 C 
ATOM     24  C   LIG    1       -0.019   1.526   0.010  0.00  0.00    +0.010 C 
ENDBRANCH  21  22
BRANCH  21  25
ATOM     25  O   LIG    1        0.097   0.070  -2.412  0.00  0.00    -0.390 OA
ATOM     26  H   LIG    1        0.116   1.037  -2.433  0.00  0.00    +0.210 HD
ENDBRANCH  21  25
ENDBRANCH  20  21
ENDBRANCH   1  20
TORSDOF 6
