REMARK  Name = ZINC000001075788
REMARK                            x       y       z     vdW  Elec       q    Type
REMARK                         _______ _______ _______ _____ _____    ______ ____
ROOT
ATOM      1  C   LIG    1        2.678  -0.016   4.122  0.00  0.00    +0.263 C 
ATOM      2  N   LIG    1        3.272  -0.498   5.232  0.00  0.00    -0.299 N 
ATOM      3  H   LIG    1        3.421  -1.452   5.327  0.00  0.00    +0.150 HD
ATOM      4  O   LIG    1        2.491   1.179   4.003  0.00  0.00    -0.269 OA
ENDROOT
BRANCH   1   5
ATOM      5  C   LIG    1        2.252  -0.944   3.046  0.00  0.00    +0.130 A 
ATOM      6  N   LIG    1        2.462  -2.239   3.192  0.00  0.00    -0.242 NA
ATOM      7  C   LIG    1        2.099  -3.115   2.255  0.00  0.00    +0.075 A 
ATOM      8  C   LIG    1        2.331  -4.494   2.426  0.00  0.00    +0.028 A 
ATOM      9  C   LIG    1        1.952  -5.367   1.455  0.00  0.00    +0.002 A 
ATOM     10  C   LIG    1        1.334  -4.921   0.288  0.00  0.00    +0.001 A 
ATOM     11  C   LIG    1        1.093  -3.596   0.087  0.00  0.00    +0.013 A 
ATOM     12  C   LIG    1        1.470  -2.666   1.067  0.00  0.00    +0.042 A 
ATOM     13  C   LIG    1        1.237  -1.283   0.893  0.00  0.00    +0.131 A 
ATOM     14  C   LIG    1        1.641  -0.425   1.899  0.00  0.00    +0.079 A 
BRANCH  13  15
ATOM     15  O   LIG    1        0.638  -0.811  -0.228  0.00  0.00    -0.494 OA
ATOM     16  C   LIG    1        0.450   0.602  -0.317  0.00  0.00    +0.277 C 
ENDBRANCH  13  15
ENDBRANCH   1   5
BRANCH   2  17
ATOM     17  C   LIG    1        3.693   0.418   6.294  0.00  0.00    +0.156 C 
ATOM     18  C   LIG    1        5.081   0.973   5.969  0.00  0.00    +0.038 C 
BRANCH  17  19
ATOM     19  C   LIG    1        3.742  -0.322   7.606  0.00  0.00    +0.236 C 
ATOM     20  N   LIG    1        3.744   0.363   8.767  0.00  0.00    -0.300 N 
ATOM     21  C   LIG    1        3.903  -0.337  10.049  0.00  0.00    +0.108 C 
ATOM     22  C   LIG    1        2.751   0.050  10.974  0.00  0.00    +0.019 C 
ATOM     23  C   LIG    1        2.686   1.574  11.093  0.00  0.00    +0.003 C 
ATOM     24  C   LIG    1        2.427   2.186   9.714  0.00  0.00    +0.019 C 
ATOM     25  C   LIG    1        3.582   1.823   8.775  0.00  0.00    +0.108 C 
ATOM     26  O   LIG    1        3.780  -1.534   7.617  0.00  0.00    -0.274 OA
ENDBRANCH  17  19
ENDBRANCH   2  17
TORSDOF 4
