REMARK  Name = ZINC000058192969
REMARK                            x       y       z     vdW  Elec       q    Type
REMARK                         _______ _______ _______ _____ _____    ______ ____
ROOT
ATOM      1  C   LIG    1       -4.981  -2.629   0.035  0.00  0.00    +0.036 C 
ATOM      2  C   LIG    1       -5.094  -3.570   1.253  0.00  0.00    +0.117 C 
ATOM      3  N   LIG    1       -5.773  -4.794   0.794  0.00  0.00    -0.176 NA
ATOM      4  C   LIG    1       -6.111  -4.641  -0.633  0.00  0.00    +0.110 C 
ATOM      5  C   LIG    1       -5.099  -3.599  -1.171  0.00  0.00    +0.026 C 
ENDROOT
BRANCH   1   6
ATOM      6  C   LIG    1       -3.648  -1.927   0.026  0.00  0.00    -0.043 A 
ATOM      7  C   LIG    1       -3.596  -0.545   0.027  0.00  0.00    +0.007 A 
ATOM      8  C   LIG    1       -2.375   0.101   0.019  0.00  0.00    +0.046 A 
ATOM      9  C   LIG    1       -1.200  -0.637   0.010  0.00  0.00    +0.120 A 
ATOM     10  C   LIG    1       -1.255  -2.024   0.003  0.00  0.00    +0.046 A 
ATOM     11  C   LIG    1       -2.479  -2.665   0.016  0.00  0.00    +0.007 A 
BRANCH   9  12
ATOM     12  O   LIG    1        0.002  -0.004   0.002  0.00  0.00    -0.495 OA
ATOM     13  C   LIG    1       -0.017   1.425   0.010  0.00  0.00    +0.277 C 
ENDBRANCH   9  12
ENDBRANCH   1   6
BRANCH   3  14
ATOM     14  S   LIG    1       -6.106  -6.121   1.727  0.00  0.00    +0.064 S 
ATOM     15  O   LIG    1       -6.135  -5.667   3.074  0.00  0.00    -0.153 OA
ATOM     16  O   LIG    1       -7.199  -6.784   1.107  0.00  0.00    -0.153 OA
BRANCH  14  17
ATOM     17  C   LIG    1       -4.725  -7.208   1.598  0.00  0.00    +0.148 A 
ATOM     18  C   LIG    1       -3.599  -7.210   2.428  0.00  0.00    +0.086 A 
ATOM     19  C   LIG    1       -3.357  -6.285   3.592  0.00  0.00    +0.069 C 
ATOM     20  N   LIG    1       -2.796  -8.161   2.024  0.00  0.00    -0.174 NA
ATOM     21  N   LIG    1       -3.382  -8.788   0.917  0.00  0.00    -0.269 N 
ATOM     22  C   LIG    1       -2.811  -9.902   0.155  0.00  0.00    +0.172 C 
ATOM     23  C   LIG    1       -4.565  -8.185   0.676  0.00  0.00    +0.062 A 
ATOM     24  C   LIG    1       -5.534  -8.537  -0.423  0.00  0.00    +0.067 C 
ENDBRANCH  14  17
ENDBRANCH   3  14
TORSDOF 4
