REMARK  Name = ZINC000104486344
REMARK                            x       y       z     vdW  Elec       q    Type
REMARK                         _______ _______ _______ _____ _____    ______ ____
ROOT
ATOM      1  C   LIG    1       -0.311  -4.144   0.565  0.00  0.00    +0.147 C 
ENDROOT
BRANCH   1   2
ATOM      2  N   LIG    1       -0.389  -2.691   0.767  0.00  0.00    -0.293 NA
ATOM      3  C   LIG    1        0.952  -2.088   0.774  0.00  0.00    +0.103 C 
ATOM      4  C   LIG    1        0.833  -0.591   1.066  0.00  0.00    +0.073 C 
ATOM      5  N   LIG    1       -0.019   0.038   0.047  0.00  0.00    -0.300 NA
ATOM      6  C   LIG    1       -0.096   1.491   0.249  0.00  0.00    +0.105 C 
ATOM      7  C   LIG    1       -1.359  -0.565   0.039  0.00  0.00    +0.100 C 
ATOM      8  C   LIG    1       -1.240  -2.062  -0.252  0.00  0.00    +0.100 C 
BRANCH   4   9
ATOM      9  C   LIG    1        2.223   0.047   1.035  0.00  0.00    +0.048 C 
BRANCH   9  10
ATOM     10  C   LIG    1        3.061  -0.499   2.193  0.00  0.00    +0.157 C 
BRANCH  10  11
ATOM     11  O   LIG    1        4.346   0.125   2.186  0.00  0.00    -0.395 OA
ATOM     12  H   LIG    1        4.932  -0.174   2.895  0.00  0.00    +0.209 HD
ENDBRANCH  10  11
ENDBRANCH   9  10
ENDBRANCH   4   9
ENDBRANCH   1   2
BRANCH   1  13
ATOM     13  C   LIG    1       -1.667  -4.757   0.803  0.00  0.00    +0.093 A 
ATOM     14  S   LIG    1       -2.228  -5.326   2.313  0.00  0.00    -0.079 S 
ATOM     15  C   LIG    1       -3.761  -5.796   1.583  0.00  0.00    +0.075 A 
ATOM     16  C   LIG    1       -3.706  -5.487   0.272  0.00  0.00    +0.078 A 
ATOM     17  N   LIG    1       -2.564  -4.931  -0.106  0.00  0.00    -0.243 NA
BRANCH  16  18
ATOM     18  C   LIG    1       -4.826  -5.747  -0.666  0.00  0.00    +0.001 A 
ATOM     19  C   LIG    1       -6.039  -6.239  -0.188  0.00  0.00    +0.013 A 
ATOM     20  C   LIG    1       -7.079  -6.475  -1.063  0.00  0.00    +0.039 A 
ATOM     21  C   LIG    1       -6.915  -6.234  -2.417  0.00  0.00    +0.123 A 
ATOM     22  C   LIG    1       -5.709  -5.751  -2.899  0.00  0.00    +0.039 A 
ATOM     23  F   LIG    1       -7.935  -6.471  -3.272  0.00  0.00    -0.205 F 
ATOM     24  C   LIG    1       -4.665  -5.507  -2.030  0.00  0.00    +0.013 A 
ENDBRANCH  16  18
ENDBRANCH   1  13
TORSDOF 6
