REMARK  Name = ZINC000012979499
REMARK                            x       y       z     vdW  Elec       q    Type
REMARK                         _______ _______ _______ _____ _____    ______ ____
ROOT
ATOM      1  C   LIG    1        2.431   1.219  -0.015  0.00  0.00    +0.181 C 
ENDROOT
BRANCH   1   2
ATOM      2  C   LIG    1        2.891   0.978   1.400  0.00  0.00    +0.068 C 
ATOM      3  N   LIG    1        3.185   2.004   2.183  0.00  0.00    -0.232 NA
ATOM      4  C   LIG    1        3.588   1.823   3.439  0.00  0.00    +0.141 C 
ATOM      5  C   LIG    1        3.885   2.942   4.240  0.00  0.00    +0.048 C 
ATOM      6  C   LIG    1        4.302   2.756   5.523  0.00  0.00    +0.025 C 
ATOM      7  C   LIG    1        4.430   1.453   6.027  0.00  0.00    +0.058 C 
ATOM      8 CL   LIG    1        4.961   1.204   7.661  0.00  0.00    -0.082 Cl
ATOM      9  C   LIG    1        4.141   0.390   5.242  0.00  0.00    +0.116 C 
ATOM     10  N   LIG    1        3.722   0.566   3.958  0.00  0.00    -0.267 N 
ATOM     11  C   LIG    1        3.439  -0.510   3.194  0.00  0.00    +0.259 C 
ATOM     12  O   LIG    1        3.555  -1.639   3.646  0.00  0.00    -0.267 OA
ATOM     13  C   LIG    1        3.010  -0.313   1.877  0.00  0.00    +0.095 C 
ENDBRANCH   1   2
BRANCH   1  14
ATOM     14  N   LIG    1        1.141   1.913   0.001  0.00  0.00    -0.300 N 
ATOM     15  C   LIG    1       -0.014   1.214   0.009  0.00  0.00    +0.270 A 
ATOM     16  C   LIG    1       -1.290   1.938   0.031  0.00  0.00    +0.181 A 
ATOM     17  N   LIG    1       -1.304   3.241   0.038  0.00  0.00    -0.248 NA
ATOM     18  C   LIG    1       -0.158   3.948   0.025  0.00  0.00    +0.088 A 
ATOM     19  C   LIG    1       -0.197   5.351   0.033  0.00  0.00    +0.030 A 
ATOM     20  C   LIG    1        0.966   6.065   0.021  0.00  0.00    +0.002 A 
ATOM     21  C   LIG    1        2.194   5.418   0.000  0.00  0.00    +0.002 A 
ATOM     22  C   LIG    1        2.260   4.042  -0.009  0.00  0.00    +0.028 A 
ATOM     23  O   LIG    1        0.002  -0.004   0.002  0.00  0.00    -0.266 OA
ATOM     24  C   LIG    1        1.088   3.292   0.004  0.00  0.00    +0.071 A 
ENDBRANCH   1  14
TORSDOF 2
