REMARK  Name = ZINC000083854299
REMARK                            x       y       z     vdW  Elec       q    Type
REMARK                         _______ _______ _______ _____ _____    ______ ____
ROOT
ATOM      1  C   LIG    1       -7.243  -2.976   0.264  0.00  0.00    +0.328 C 
ENDROOT
BRANCH   1   2
ATOM      2  C   LIG    1       -5.956  -2.200   0.142  0.00  0.00    +0.255 C 
ATOM      3  O   LIG    1       -5.977  -0.988   0.144  0.00  0.00    -0.272 OA
ATOM      4  N   LIG    1       -4.783  -2.854   0.032  0.00  0.00    -0.283 N 
ATOM      5  H   LIG    1       -4.772  -3.821  -0.046  0.00  0.00    +0.155 HD
BRANCH   4   6
ATOM      6  C   LIG    1       -3.579  -2.138   0.030  0.00  0.00    +0.034 A 
ATOM      7  C   LIG    1       -3.461  -0.975   0.781  0.00  0.00    +0.025 A 
ATOM      8  C   LIG    1       -2.275  -0.269   0.779  0.00  0.00    +0.025 A 
ATOM      9  C   LIG    1       -1.199  -0.721   0.026  0.00  0.00    +0.029 A 
ATOM     10  C   LIG    1       -1.319  -1.880  -0.730  0.00  0.00    +0.025 A 
ATOM     11  C   LIG    1       -2.503  -2.589  -0.723  0.00  0.00    +0.025 A 
BRANCH   9  12
ATOM     12  N   LIG    1        0.003  -0.006   0.024  0.00  0.00    -0.336 N 
ATOM     13  C   LIG    1        0.129   1.217   0.822  0.00  0.00    +0.129 C 
ATOM     14  C   LIG    1        1.136  -0.479  -0.775  0.00  0.00    +0.129 C 
ENDBRANCH   9  12
ENDBRANCH   4   6
ENDBRANCH   1   2
BRANCH   1  15
ATOM     15  O   LIG    1       -8.357  -2.051   0.369  0.00  0.00    -0.452 OA
BRANCH  15  16
ATOM     16  C   LIG    1       -9.588  -2.587   0.485  0.00  0.00    +0.340 C 
ATOM     17  O   LIG    1       -9.726  -3.794   0.498  0.00  0.00    -0.245 OA
BRANCH  16  18
ATOM     18  C   LIG    1      -10.767  -1.709   0.596  0.00  0.00    +0.060 A 
ATOM     19  C   LIG    1      -12.024  -2.273   0.720  0.00  0.00    +0.026 A 
ATOM     20  C   LIG    1      -13.147  -1.434   0.826  0.00  0.00    +0.020 A 
ATOM     21  C   LIG    1      -14.510  -1.644   0.959  0.00  0.00    +0.113 A 
ATOM     22  N   LIG    1      -15.106  -0.447   1.012  0.00  0.00    -0.284 N 
ATOM     23  H   LIG    1      -16.061  -0.304   1.104  0.00  0.00    +0.188 HD
ATOM     24  N   LIG    1      -14.149   0.569   0.915  0.00  0.00    -0.174 NA
ATOM     25  C   LIG    1      -12.952   0.025   0.801  0.00  0.00    +0.093 A 
ATOM     26  C   LIG    1      -11.641   0.538   0.671  0.00  0.00    +0.031 A 
ATOM     27  C   LIG    1      -10.592  -0.309   0.579  0.00  0.00    +0.017 A 
ENDBRANCH  16  18
ENDBRANCH  15  16
ENDBRANCH   1  15
TORSDOF 6
