REMARK  Name = ZINC000095988379
REMARK                            x       y       z     vdW  Elec       q    Type
REMARK                         _______ _______ _______ _____ _____    ______ ____
ROOT
ATOM      1  C   LIG    1        2.910  -0.188  -0.081  0.00  0.00    +0.247 C 
ATOM      2  O   LIG    1        2.386   0.321   0.890  0.00  0.00    -0.270 OA
ATOM      3  N   LIG    1        4.235  -0.433  -0.082  0.00  0.00    -0.295 N 
ATOM      4  C   LIG    1        5.038  -0.208   1.129  0.00  0.00    +0.127 C 
ATOM      5  C   LIG    1        6.192   0.737   0.788  0.00  0.00    +0.127 C 
ATOM      6  N   LIG    1        6.861   0.245  -0.424  0.00  0.00    -0.294 N 
ATOM      7  C   LIG    1        8.186   0.000  -0.425  0.00  0.00    +0.249 C 
ATOM      8  O   LIG    1        8.820   0.085   0.609  0.00  0.00    -0.270 OA
ATOM      9  C   LIG    1        6.059   0.025  -1.636  0.00  0.00    +0.127 C 
ATOM     10  C   LIG    1        4.904  -0.925  -1.294  0.00  0.00    +0.127 C 
ENDROOT
BRANCH   7  11
ATOM     11  C   LIG    1        8.868  -0.371  -1.681  0.00  0.00    +0.072 A 
ATOM     12  C   LIG    1        9.640  -1.536  -1.744  0.00  0.00    +0.135 A 
ATOM     13  F   LIG    1        9.761  -2.328  -0.657  0.00  0.00    -0.205 F 
ATOM     14  C   LIG    1       10.270  -1.879  -2.927  0.00  0.00    +0.039 A 
ATOM     15  C   LIG    1       10.146  -1.068  -4.039  0.00  0.00    +0.003 A 
ATOM     16  C   LIG    1        9.388   0.089  -3.981  0.00  0.00    +0.001 A 
ATOM     17  C   LIG    1        8.749   0.441  -2.811  0.00  0.00    +0.016 A 
ENDBRANCH   7  11
BRANCH   1  18
ATOM     18  C   LIG    1        2.091  -0.537  -1.266  0.00  0.00    +0.043 A 
ATOM     19  C   LIG    1        2.104  -1.833  -1.790  0.00  0.00    +0.033 A 
ATOM     20  C   LIG    1        1.325  -2.115  -2.896  0.00  0.00    +0.111 A 
ATOM     21  N   LIG    1        0.575  -1.185  -3.451  0.00  0.00    -0.263 NA
ATOM     22  C   LIG    1        0.530   0.048  -2.985  0.00  0.00    +0.115 A 
ATOM     23  C   LIG    1        1.277   0.417  -1.883  0.00  0.00    -0.017 A 
BRANCH  23  24
ATOM     24  C   LIG    1        1.219   1.828  -1.358  0.00  0.00    +0.034 C 
ATOM     25  C   LIG    1        2.368   2.642  -1.957  0.00  0.00    +0.009 C 
ENDBRANCH  23  24
ENDBRANCH   1  18
TORSDOF 3
