REMARK  Name = ZINC000042367748
REMARK                            x       y       z     vdW  Elec       q    Type
REMARK                         _______ _______ _______ _____ _____    ______ ____
ROOT
ATOM      1  C   LIG    1       -0.018   1.503   0.010  0.00  0.00    +0.109 C 
ATOM      2  C   LIG    1        0.002  -0.004   0.002  0.00  0.00    +0.217 C 
ATOM      3  O   LIG    1        0.020  -0.616   1.049  0.00  0.00    -0.276 OA
ATOM      4  N   LIG    1        0.000  -0.672  -1.169  0.00  0.00    -0.270 N 
ATOM      5  C   LIG    1        0.020  -2.139  -1.179  0.00  0.00    +0.120 C 
ATOM      6  C   LIG    1        0.992  -2.613  -2.225  0.00  0.00    -0.019 A 
ATOM      7  C   LIG    1        1.614  -3.835  -2.103  0.00  0.00    +0.006 A 
ATOM      8  C   LIG    1        2.479  -4.272  -3.093  0.00  0.00    +0.000 A 
ATOM      9  C   LIG    1        2.725  -3.486  -4.204  0.00  0.00    +0.001 A 
ATOM     10  C   LIG    1        2.115  -2.255  -4.334  0.00  0.00    +0.008 A 
ATOM     11  C   LIG    1        1.247  -1.807  -3.338  0.00  0.00    -0.019 A 
ATOM     12  C   LIG    1        0.595  -0.488  -3.443  0.00  0.00    +0.023 C 
ATOM     13  C   LIG    1       -0.015   0.027  -2.369  0.00  0.00    +0.079 C 
ENDROOT
BRANCH   5  14
ATOM     14  C   LIG    1       -1.379  -2.664  -1.506  0.00  0.00    +0.123 C 
BRANCH  14  15
ATOM     15  C   LIG    1       -2.327  -2.293  -0.395  0.00  0.00    +0.215 C 
ATOM     16  O   LIG    1       -1.923  -1.669   0.564  0.00  0.00    -0.276 OA
ATOM     17  N   LIG    1       -3.624  -2.653  -0.467  0.00  0.00    -0.311 N 
ATOM     18  H   LIG    1       -3.947  -3.152  -1.233  0.00  0.00    +0.149 HD
BRANCH  17  19
ATOM     19  C   LIG    1       -4.545  -2.292   0.614  0.00  0.00    +0.091 C 
ATOM     20  C   LIG    1       -5.078  -0.877   0.378  0.00  0.00    +0.029 C 
BRANCH  19  21
ATOM     21  C   LIG    1       -5.714  -3.279   0.638  0.00  0.00    +0.165 C 
BRANCH  21  22
ATOM     22  N   LIG    1       -5.218  -4.614   0.982  0.00  0.00    -0.270 N 
ATOM     23  C   LIG    1       -5.665  -5.392   1.991  0.00  0.00    +0.108 A 
ATOM     24  C   LIG    1       -4.952  -6.542   1.972  0.00  0.00    +0.041 A 
ATOM     25  C   LIG    1       -4.038  -6.464   0.916  0.00  0.00    +0.134 A 
ATOM     26  N   LIG    1       -4.201  -5.312   0.318  0.00  0.00    -0.180 NA
ENDBRANCH  21  22
ENDBRANCH  19  21
ENDBRANCH  17  19
ENDBRANCH  14  15
ENDBRANCH   5  14
TORSDOF 5
