REMARK  Name = ZINC000012973518
REMARK                            x       y       z     vdW  Elec       q    Type
REMARK                         _______ _______ _______ _____ _____    ______ ____
ROOT
ATOM      1  C   LIG    1        2.662  -6.128   1.466  0.00  0.00    +0.213 C 
ATOM      2  O   LIG    1        1.833  -6.747   2.099  0.00  0.00    -0.276 OA
ATOM      3  N   LIG    1        3.644  -6.784   0.817  0.00  0.00    -0.315 N 
ATOM      4  H   LIG    1        4.306  -6.289   0.311  0.00  0.00    +0.149 HD
ENDROOT
BRANCH   1   5
ATOM      5  C   LIG    1        2.593  -4.623   1.404  0.00  0.00    +0.100 C 
BRANCH   5   6
ATOM      6  C   LIG    1        1.394  -4.134   2.219  0.00  0.00    +0.048 C 
BRANCH   6   7
ATOM      7  C   LIG    1        1.325  -2.630   2.158  0.00  0.00    -0.002 A 
ATOM      8  C   LIG    1        1.897  -1.870   3.161  0.00  0.00    +0.007 A 
ATOM      9  C   LIG    1        1.836  -0.490   3.108  0.00  0.00    +0.004 A 
ATOM     10  C   LIG    1        1.202   0.137   2.051  0.00  0.00    +0.049 A 
ATOM     11  C   LIG    1        0.626  -0.619   1.042  0.00  0.00    +0.162 A 
ATOM     12  C   LIG    1        0.683  -2.008   1.099  0.00  0.00    +0.165 A 
BRANCH  11  13
ATOM     13  O   LIG    1        0.002  -0.004   0.002  0.00  0.00    -0.491 OA
ATOM     14  C   LIG    1       -0.017   1.425   0.010  0.00  0.00    +0.277 C 
ENDBRANCH  11  13
BRANCH  12  15
ATOM     15  O   LIG    1        0.120  -2.754   0.111  0.00  0.00    -0.491 OA
ATOM     16  C   LIG    1       -1.245  -3.139   0.287  0.00  0.00    +0.277 C 
ENDBRANCH  12  15
ENDBRANCH   6   7
ENDBRANCH   5   6
ENDBRANCH   1   5
BRANCH   3  17
ATOM     17  C   LIG    1        3.711  -8.246   0.877  0.00  0.00    +0.110 C 
BRANCH  17  18
ATOM     18  C   LIG    1        4.910  -8.736   0.063  0.00  0.00    +0.039 C 
BRANCH  18  19
ATOM     19  C   LIG    1        5.054 -10.250   0.226  0.00  0.00    +0.081 C 
BRANCH  19  20
ATOM     20  C   LIG    1        6.304 -10.715  -0.475  0.00  0.00    +0.105 A 
ATOM     21  C   LIG    1        7.527 -10.809   0.078  0.00  0.00    +0.044 A 
ATOM     22  C   LIG    1        8.397 -11.284  -0.931  0.00  0.00    +0.041 A 
ATOM     23  C   LIG    1        7.654 -11.451  -2.040  0.00  0.00    +0.195 A 
ATOM     24  O   LIG    1        6.386 -11.110  -1.756  0.00  0.00    -0.468 OA
ENDBRANCH  19  20
ENDBRANCH  18  19
BRANCH  18  25
ATOM     25  C   LIG    1        4.694  -8.400  -1.415  0.00  0.00    +0.161 C 
BRANCH  25  26
ATOM     26  O   LIG    1        4.676  -6.982  -1.583  0.00  0.00    -0.395 OA
ATOM     27  H   LIG    1        4.543  -6.696  -2.497  0.00  0.00    +0.209 HD
ENDBRANCH  25  26
ENDBRANCH  18  25
ENDBRANCH  17  18
ENDBRANCH   3  17
TORSDOF 11
