REMARK  Name = ZINC000069602029
REMARK                            x       y       z     vdW  Elec       q    Type
REMARK                         _______ _______ _______ _____ _____    ______ ____
ROOT
ATOM      1  C   LIG    1       -1.912   0.089   3.874  0.00  0.00    +0.068 C 
ATOM      2  C   LIG    1       -3.197  -0.256   4.098  0.00  0.00    +0.013 C 
ENDROOT
BRANCH   2   3
ATOM      3  C   LIG    1       -3.886   0.219   5.308  0.00  0.00    -0.025 A 
ATOM      4  C   LIG    1       -3.212   1.032   6.226  0.00  0.00    +0.010 A 
ATOM      5  C   LIG    1       -3.860   1.474   7.357  0.00  0.00    +0.027 A 
ATOM      6  C   LIG    1       -5.183   1.112   7.589  0.00  0.00    +0.047 A 
ATOM      7  C   LIG    1       -5.857   0.304   6.679  0.00  0.00    +0.027 A 
ATOM      8  C   LIG    1       -5.219  -0.138   5.543  0.00  0.00    +0.010 A 
BRANCH   6   9
ATOM      9  N   LIG    1       -5.838   1.563   8.739  0.00  0.00    -0.306 N 
ATOM     10  C   LIG    1       -5.311   2.354   9.712  0.00  0.00    +0.204 A 
ATOM     11  N   LIG    1       -6.226   2.562  10.619  0.00  0.00    -0.244 NA
ATOM     12  C   LIG    1       -7.350   1.917  10.273  0.00  0.00    +0.130 A 
ATOM     13  C   LIG    1       -7.131   1.287   9.103  0.00  0.00    +0.112 A 
ENDBRANCH   6   9
ENDBRANCH   2   3
BRANCH   1  14
ATOM     14  C   LIG    1       -1.227  -0.383   2.671  0.00  0.00    +0.238 C 
ATOM     15  N   LIG    1        0.056  -0.038   2.447  0.00  0.00    -0.297 N 
ATOM     16  H   LIG    1        0.526   0.522   3.084  0.00  0.00    +0.150 HD
ATOM     17  O   LIG    1       -1.817  -1.086   1.871  0.00  0.00    -0.271 OA
BRANCH  15  18
ATOM     18  C   LIG    1        0.742  -0.511   1.242  0.00  0.00    +0.129 C 
ATOM     19  C   LIG    1        0.763  -2.041   1.233  0.00  0.00    +0.043 C 
BRANCH  18  20
ATOM     20  C   LIG    1        2.156   0.011   1.231  0.00  0.00    +0.330 C 
ATOM     21  O   LIG    1        3.047  -0.667   0.776  0.00  0.00    -0.248 OA
BRANCH  20  22
ATOM     22  O   LIG    1        2.426   1.229   1.726  0.00  0.00    -0.466 OA
ATOM     23  C   LIG    1        3.809   1.666   1.683  0.00  0.00    +0.280 C 
ENDBRANCH  20  22
ENDBRANCH  18  20
BRANCH  18  24
ATOM     24  C   LIG    1        0.002  -0.004   0.002  0.00  0.00    +0.033 C 
ATOM     25  C   LIG    1       -0.019   1.526   0.010  0.00  0.00    +0.006 C 
ENDBRANCH  18  24
ENDBRANCH  15  18
ENDBRANCH   1  14
TORSDOF 7
