REMARK  Name = ZINC000042652062
REMARK                            x       y       z     vdW  Elec       q    Type
REMARK                         _______ _______ _______ _____ _____    ______ ____
ROOT
ATOM      1  N   LIG    1        2.180  -0.916   5.296  0.00  0.00    -0.289 NA
ATOM      2  C   LIG    1        2.256  -1.301   6.712  0.00  0.00    +0.100 C 
ATOM      3  C   LIG    1        3.355  -0.490   7.401  0.00  0.00    +0.100 C 
ATOM      4  N   LIG    1        4.637  -0.732   6.723  0.00  0.00    -0.296 NA
ATOM      5  C   LIG    1        4.561  -0.346   5.307  0.00  0.00    +0.100 C 
ATOM      6  C   LIG    1        3.461  -1.157   4.618  0.00  0.00    +0.100 C 
ENDROOT
BRANCH   1   7
ATOM      7  C   LIG    1        1.084  -1.619   4.617  0.00  0.00    +0.143 C 
ATOM      8  C   LIG    1        1.065  -1.227   3.138  0.00  0.00    +0.034 C 
BRANCH   7   9
ATOM      9  C   LIG    1       -0.228  -1.239   5.254  0.00  0.00    +0.244 A 
ATOM     10  N   LIG    1       -1.192  -2.057   5.603  0.00  0.00    -0.195 NA
ATOM     11  C   LIG    1       -2.157  -1.277   6.123  0.00  0.00    +0.172 A 
ATOM     12  N   LIG    1       -1.735  -0.049   6.071  0.00  0.00    -0.061 NA
ATOM     13  O   LIG    1       -0.629  -0.006   5.575  0.00  0.00    -0.336 OA
BRANCH  11  14
ATOM     14  C   LIG    1       -3.482  -1.743   6.670  0.00  0.00    +0.076 C 
ATOM     15  C   LIG    1       -3.339  -2.042   8.164  0.00  0.00    +0.012 C 
ENDBRANCH  11  14
ENDBRANCH   7   9
ENDBRANCH   1   7
BRANCH   4  16
ATOM     16  C   LIG    1        5.733  -0.028   7.402  0.00  0.00    +0.119 C 
BRANCH  16  17
ATOM     17  C   LIG    1        5.938  -0.621   8.772  0.00  0.00    -0.033 A 
ATOM     18  C   LIG    1        5.241  -0.113   9.854  0.00  0.00    +0.006 A 
ATOM     19  C   LIG    1        5.425  -0.651  11.111  0.00  0.00    +0.019 A 
ATOM     20  C   LIG    1        6.316  -1.712  11.290  0.00  0.00    +0.052 A 
ATOM     21  C   LIG    1        7.015  -2.220  10.193  0.00  0.00    +0.019 A 
ATOM     22  C   LIG    1        6.818  -1.676   8.941  0.00  0.00    +0.006 A 
BRANCH  20  23
ATOM     23  C   LIG    1        6.511  -2.276  12.592  0.00  0.00    +0.099 C 
ATOM     24  N   LIG    1        6.665  -2.724  13.624  0.00  0.00    -0.191 NA
ENDBRANCH  20  23
ENDBRANCH  16  17
ENDBRANCH   4  16
TORSDOF 6
