REMARK  Name = ZINC000042366914
REMARK                            x       y       z     vdW  Elec       q    Type
REMARK                         _______ _______ _______ _____ _____    ______ ____
ROOT
ATOM      1  C   LIG    1       -6.228  -1.803   0.046  0.00  0.00    +0.089 C 
ENDROOT
BRANCH   1   2
ATOM      2  C   LIG    1       -4.956  -2.610   0.036  0.00  0.00    +0.164 C 
ATOM      3  O   LIG    1       -5.006  -3.822   0.035  0.00  0.00    -0.292 OA
BRANCH   2   4
ATOM      4  C   LIG    1       -3.654  -1.929   0.027  0.00  0.00    +0.021 A 
ATOM      5  C   LIG    1       -3.594  -0.530   0.028  0.00  0.00    +0.015 A 
ATOM      6  C   LIG    1       -2.373   0.106   0.020  0.00  0.00    +0.050 A 
ATOM      7  C   LIG    1       -1.199  -0.637   0.010  0.00  0.00    +0.162 A 
ATOM      8  C   LIG    1       -1.251  -2.031   0.003  0.00  0.00    +0.162 A 
ATOM      9  C   LIG    1       -2.470  -2.677   0.017  0.00  0.00    +0.060 A 
BRANCH   8  10
ATOM     10  O   LIG    1       -0.099  -2.754  -0.007  0.00  0.00    -0.491 OA
ATOM     11  C   LIG    1       -0.226  -4.177  -0.002  0.00  0.00    +0.277 C 
ENDBRANCH   8  10
BRANCH   7  12
ATOM     12  O   LIG    1        0.002  -0.004   0.002  0.00  0.00    -0.491 OA
ATOM     13  C   LIG    1       -0.017   1.425   0.010  0.00  0.00    +0.277 C 
ENDBRANCH   7  12
ENDBRANCH   2   4
ENDBRANCH   1   2
BRANCH   1  14
ATOM     14  C   LIG    1       -7.431  -2.748   0.054  0.00  0.00    +0.103 C 
BRANCH  14  15
ATOM     15  C   LIG    1       -8.704  -1.941   0.064  0.00  0.00    +0.214 C 
ATOM     16  N   LIG    1       -9.898  -2.566   0.072  0.00  0.00    -0.311 N 
ATOM     17  H   LIG    1       -9.938  -3.535   0.071  0.00  0.00    +0.149 HD
ATOM     18  O   LIG    1       -8.654  -0.729   0.065  0.00  0.00    -0.276 OA
BRANCH  16  19
ATOM     19  C   LIG    1      -11.135  -1.782   0.082  0.00  0.00    +0.091 C 
ATOM     20  C   LIG    1      -11.509  -1.401  -1.352  0.00  0.00    +0.029 C 
BRANCH  19  21
ATOM     21  C   LIG    1      -12.262  -2.613   0.699  0.00  0.00    +0.165 C 
BRANCH  21  22
ATOM     22  N   LIG    1      -11.959  -2.877   2.108  0.00  0.00    -0.270 N 
ATOM     23  C   LIG    1      -12.758  -2.595   3.158  0.00  0.00    +0.108 A 
ATOM     24  C   LIG    1      -12.117  -2.992   4.282  0.00  0.00    +0.041 A 
ATOM     25  C   LIG    1      -10.884  -3.534   3.906  0.00  0.00    +0.134 A 
ATOM     26  N   LIG    1      -10.790  -3.471   2.602  0.00  0.00    -0.180 NA
ENDBRANCH  21  22
ENDBRANCH  19  21
ENDBRANCH  16  19
ENDBRANCH  14  15
ENDBRANCH   1  14
TORSDOF 9
