REMARK  Name = ZINC000082092503
REMARK                            x       y       z     vdW  Elec       q    Type
REMARK                         _______ _______ _______ _____ _____    ______ ____
ROOT
ATOM      1  O   LIG    1        0.002  -0.004   0.002  0.00  0.00    -0.276 OA
ATOM      2  C   LIG    1       -0.014   1.209   0.009  0.00  0.00    +0.216 C 
ATOM      3  N   LIG    1       -1.191   1.867   0.018  0.00  0.00    -0.294 N 
ATOM      4  C   LIG    1       -2.473   1.143   0.020  0.00  0.00    +0.144 C 
ATOM      5  C   LIG    1       -3.183   1.461   1.341  0.00  0.00    +0.162 C 
ATOM      6  C   LIG    1       -3.168   2.942   1.614  0.00  0.00    -0.013 A 
ATOM      7  C   LIG    1       -4.099   3.440   2.517  0.00  0.00    +0.006 A 
ATOM      8  C   LIG    1       -4.123   4.783   2.831  0.00  0.00    +0.000 A 
ATOM      9  C   LIG    1       -3.215   5.643   2.242  0.00  0.00    +0.000 A 
ATOM     10  C   LIG    1       -2.293   5.152   1.341  0.00  0.00    +0.005 A 
ATOM     11  C   LIG    1       -2.270   3.801   1.021  0.00  0.00    -0.024 A 
ATOM     12  C   LIG    1       -1.245   3.332   0.020  0.00  0.00    +0.143 C 
ENDROOT
BRANCH   5  13
ATOM     13  O   LIG    1       -4.537   1.011   1.263  0.00  0.00    -0.386 OA
ATOM     14  H   LIG    1       -5.049   1.160   2.070  0.00  0.00    +0.210 HD
ENDBRANCH   5  13
BRANCH   2  15
ATOM     15  C   LIG    1        1.280   1.980   0.001  0.00  0.00    +0.102 C 
BRANCH  15  16
ATOM     16  C   LIG    1        2.457   1.002  -0.016  0.00  0.00    +0.064 C 
BRANCH  16  17
ATOM     17  C   LIG    1        3.751   1.773  -0.024  0.00  0.00    +0.040 A 
ATOM     18  C   LIG    1        4.399   2.250   1.055  0.00  0.00    -0.004 A 
ATOM     19  C   LIG    1        4.008   2.134   2.507  0.00  0.00    +0.039 C 
ATOM     20  C   LIG    1        5.241   2.454   3.362  0.00  0.00    +0.005 C 
ATOM     21  C   LIG    1        5.862   3.774   2.898  0.00  0.00    +0.007 C 
ATOM     22  C   LIG    1        6.543   3.577   1.538  0.00  0.00    +0.057 C 
ATOM     23  C   LIG    1        5.559   2.906   0.611  0.00  0.00    +0.066 A 
ATOM     24  N   LIG    1        5.604   2.821  -0.687  0.00  0.00    -0.178 NA
ATOM     25  N   LIG    1        4.476   2.105  -1.116  0.00  0.00    -0.281 N 
ATOM     26  H   LIG    1        4.252   1.891  -2.036  0.00  0.00    +0.189 HD
ENDBRANCH  16  17
ENDBRANCH  15  16
ENDBRANCH   2  15
TORSDOF 4
