REMARK  Name = ZINC000058195924
REMARK                            x       y       z     vdW  Elec       q    Type
REMARK                         _______ _______ _______ _____ _____    ______ ____
ROOT
ATOM      1  C   LIG    1       -2.554   0.232   3.576  0.00  0.00    +0.038 A 
ATOM      2  C   LIG    1       -2.101   0.007   4.876  0.00  0.00    +0.036 A 
ATOM      3  C   LIG    1       -2.677   0.692   5.934  0.00  0.00    +0.034 A 
ATOM      4  C   LIG    1       -3.710   1.593   5.699  0.00  0.00    +0.023 A 
ATOM      5  C   LIG    1       -4.162   1.812   4.411  0.00  0.00    +0.003 A 
ATOM      6  C   LIG    1       -3.591   1.138   3.350  0.00  0.00    +0.013 A 
ENDROOT
BRANCH   3   7
ATOM      7  N   LIG    1       -2.223   0.473   7.239  0.00  0.00    -0.285 N 
ATOM      8  H   LIG    1       -2.845   0.520   7.983  0.00  0.00    +0.155 HD
ATOM      9  C   LIG    1       -0.923   0.198   7.464  0.00  0.00    +0.221 C 
ATOM     10  O   LIG    1       -0.129   0.234   6.548  0.00  0.00    -0.275 OA
BRANCH   9  11
ATOM     11  C   LIG    1       -0.456  -0.155   8.852  0.00  0.00    +0.078 C 
ATOM     12  C   LIG    1        0.005  -1.593   9.099  0.00  0.00    +0.017 C 
ATOM     13  C   LIG    1        1.031  -0.459   9.042  0.00  0.00    -0.002 C 
ATOM     14  C   LIG    1        1.680  -0.025  10.358  0.00  0.00    +0.008 C 
ENDBRANCH   9  11
ENDBRANCH   3   7
BRANCH   1  15
ATOM     15  C   LIG    1       -1.941  -0.491   2.441  0.00  0.00    +0.245 C 
ATOM     16  O   LIG    1       -1.041  -1.284   2.640  0.00  0.00    -0.270 OA
ATOM     17  N   LIG    1       -2.380  -0.272   1.186  0.00  0.00    -0.296 N 
ATOM     18  H   LIG    1       -3.098   0.360   1.027  0.00  0.00    +0.150 HD
BRANCH  17  19
ATOM     19  C   LIG    1       -1.773  -0.989   0.062  0.00  0.00    +0.129 C 
ATOM     20  C   LIG    1       -1.955  -2.495   0.259  0.00  0.00    +0.043 C 
BRANCH  19  21
ATOM     21  C   LIG    1       -0.281  -0.660  -0.006  0.00  0.00    +0.033 C 
ATOM     22  C   LIG    1       -0.095   0.857  -0.078  0.00  0.00    +0.006 C 
ENDBRANCH  19  21
BRANCH  19  23
ATOM     23  C   LIG    1       -2.440  -0.566  -1.222  0.00  0.00    +0.330 C 
ATOM     24  O   LIG    1       -1.794  -0.486  -2.240  0.00  0.00    -0.248 OA
BRANCH  23  25
ATOM     25  O   LIG    1       -3.751  -0.279  -1.235  0.00  0.00    -0.466 OA
ATOM     26  C   LIG    1       -4.326   0.121  -2.507  0.00  0.00    +0.280 C 
ENDBRANCH  23  25
ENDBRANCH  19  23
ENDBRANCH  17  19
ENDBRANCH   1  15
TORSDOF 7
