REMARK  Name = ZINC000082147220
REMARK                            x       y       z     vdW  Elec       q    Type
REMARK                         _______ _______ _______ _____ _____    ______ ____
ROOT
ATOM      1  C   LIG    1       -1.330  -2.365   2.857  0.00  0.00    +0.265 C 
ATOM      2  O   LIG    1       -1.335  -3.256   3.684  0.00  0.00    -0.268 OA
ATOM      3  N   LIG    1       -1.214  -1.081   3.250  0.00  0.00    -0.286 N 
ATOM      4  C   LIG    1       -1.048  -0.726   4.669  0.00  0.00    +0.127 C 
ATOM      5  C   LIG    1        0.297  -0.014   4.829  0.00  0.00    +0.127 C 
ATOM      6  N   LIG    1        0.468   1.004   3.801  0.00  0.00    -0.294 N 
ATOM      7  C   LIG    1       -0.180   1.020   2.636  0.00  0.00    +0.233 C 
ATOM      8  O   LIG    1        0.105   1.877   1.827  0.00  0.00    -0.274 OA
ATOM      9  C   LIG    1       -1.242   0.022   2.278  0.00  0.00    +0.204 C 
ENDROOT
BRANCH   1  10
ATOM     10  C   LIG    1       -1.452  -2.688   1.426  0.00  0.00    +0.123 A 
ATOM     11  N   LIG    1       -1.141  -3.875   0.825  0.00  0.00    -0.259 N 
ATOM     12  N   LIG    1       -1.375  -3.794  -0.435  0.00  0.00    -0.179 NA
ATOM     13  C   LIG    1       -1.829  -2.608  -0.751  0.00  0.00    +0.135 A 
ATOM     14  C   LIG    1       -1.895  -1.849   0.419  0.00  0.00    +0.054 A 
BRANCH  11  15
ATOM     15  C   LIG    1       -0.626  -5.061   1.514  0.00  0.00    +0.144 C 
BRANCH  15  16
ATOM     16  C   LIG    1       -1.796  -5.924   1.988  0.00  0.00    +0.020 C 
ATOM     17  C   LIG    1       -1.262  -7.114   2.788  0.00  0.00    +0.005 C 
ENDBRANCH  15  16
ENDBRANCH  11  15
ENDBRANCH   1  10
BRANCH   6  18
ATOM     18  C   LIG    1        1.418   2.087   4.067  0.00  0.00    +0.143 C 
BRANCH  18  19
ATOM     19  C   LIG    1        2.784   1.690   3.569  0.00  0.00    -0.030 A 
ATOM     20  C   LIG    1        3.657   1.022   4.407  0.00  0.00    +0.005 A 
ATOM     21  C   LIG    1        4.910   0.658   3.950  0.00  0.00    +0.001 A 
ATOM     22  C   LIG    1        5.289   0.961   2.656  0.00  0.00    +0.003 A 
ATOM     23  C   LIG    1        4.415   1.628   1.818  0.00  0.00    -0.050 A 
ATOM     24  C   LIG    1        4.828   1.959   0.407  0.00  0.00    +0.044 C 
ATOM     25  C   LIG    1        3.161   1.989   2.273  0.00  0.00    +0.008 A 
ENDBRANCH  18  19
ENDBRANCH   6  18
TORSDOF 5
