REMARK  Name = ZINC000082147347
REMARK                            x       y       z     vdW  Elec       q    Type
REMARK                         _______ _______ _______ _____ _____    ______ ____
ROOT
ATOM      1  O   LIG    1        0.429   0.899  -0.379  0.00  0.00    -0.270 OA
ATOM      2  C   LIG    1        0.217   1.966   0.166  0.00  0.00    +0.250 C 
ATOM      3  N   LIG    1       -1.049   2.355   0.415  0.00  0.00    -0.297 N 
ATOM      4  C   LIG    1       -1.329   3.695   0.949  0.00  0.00    +0.109 C 
ATOM      5  C   LIG    1       -2.352   4.384   0.040  0.00  0.00    +0.032 C 
ATOM      6  C   LIG    1       -3.587   3.492  -0.099  0.00  0.00    +0.078 C 
ATOM      7  C   LIG    1       -3.189   2.162  -0.742  0.00  0.00    +0.032 C 
ATOM      8  C   LIG    1       -2.176   1.450   0.152  0.00  0.00    +0.109 C 
ENDROOT
BRANCH   2   9
ATOM      9  C   LIG    1        1.344   2.836   0.547  0.00  0.00    +0.077 A 
ATOM     10  C   LIG    1        1.448   3.608   1.728  0.00  0.00    +0.147 A 
ATOM     11  N   LIG    1        2.593   4.237   1.700  0.00  0.00    -0.179 NA
ATOM     12  N   LIG    1        3.260   3.910   0.518  0.00  0.00    -0.268 N 
ATOM     13  C   LIG    1        4.573   4.393   0.077  0.00  0.00    +0.144 C 
ATOM     14  C   LIG    1        5.095   3.468  -1.027  0.00  0.00    +0.024 C 
ATOM     15  C   LIG    1        4.017   3.291  -2.100  0.00  0.00    +0.008 C 
ATOM     16  C   LIG    1        2.860   2.467  -1.518  0.00  0.00    +0.056 C 
ATOM     17  C   LIG    1        2.490   3.054  -0.180  0.00  0.00    +0.051 A 
ENDBRANCH   2   9
BRANCH   6  18
ATOM     18  C   LIG    1       -4.610   4.182  -0.965  0.00  0.00    +0.219 C 
ATOM     19  N   LIG    1       -5.911   3.842  -0.873  0.00  0.00    -0.301 N 
ATOM     20  C   LIG    1       -6.332   2.716  -0.028  0.00  0.00    +0.108 C 
ATOM     21  C   LIG    1       -7.419   3.203   0.935  0.00  0.00    +0.019 C 
ATOM     22  C   LIG    1       -8.553   3.847   0.135  0.00  0.00    +0.003 C 
ATOM     23  C   LIG    1       -8.014   5.055  -0.634  0.00  0.00    +0.019 C 
ATOM     24  C   LIG    1       -6.935   4.593  -1.611  0.00  0.00    +0.108 C 
ATOM     25  O   LIG    1       -4.262   5.044  -1.744  0.00  0.00    -0.275 OA
ENDBRANCH   6  18
TORSDOF 2
