REMARK  Name = ZINC000222207185
REMARK                            x       y       z     vdW  Elec       q    Type
REMARK                         _______ _______ _______ _____ _____    ______ ____
ROOT
ATOM      1  N   UNK A  0       -1.376  -0.512   0.012  0.00  0.00    -0.291 NA
ATOM      2  C   UNK A  0       -1.395  -1.991   0.005  0.00  0.00    +0.107 C 
ATOM      3  C   UNK A  0       -2.627  -2.423  -0.812  0.00  0.00    +0.097 C 
ATOM      4  C   UNK A  0       -3.279  -1.104  -1.288  0.00  0.00    +0.039 C 
ATOM      5  C   UNK A  0       -2.108  -0.092  -1.210  0.00  0.00    +0.087 C 
ENDROOT
BRANCH   2   6
ATOM      6  C   UNK A  0       -1.505  -2.515   1.414  0.00  0.00    -0.026 A 
ATOM      7  C   UNK A  0       -2.302  -1.860   2.333  0.00  0.00    +0.008 A 
ATOM      8  C   UNK A  0       -2.404  -2.338   3.627  0.00  0.00    +0.041 A 
ATOM      9  C   UNK A  0       -1.708  -3.474   4.001  0.00  0.00    +0.158 A 
ATOM     10  F   UNK A  0       -1.808  -3.942   5.264  0.00  0.00    -0.202 F 
ATOM     11  C   UNK A  0       -0.909  -4.132   3.078  0.00  0.00    +0.159 A 
ATOM     12  F   UNK A  0       -0.229  -5.241   3.441  0.00  0.00    -0.202 F 
ATOM     13  C   UNK A  0       -0.813  -3.653   1.783  0.00  0.00    +0.046 A 
ENDBRANCH   2   6
BRANCH   3  14
ATOM     14  N   UNK A  0       -2.219  -3.232  -1.963  0.00  0.00    -0.295 N 
ATOM     15  H   UNK A  0       -1.314  -3.164  -2.307  0.00  0.00    +0.151 HD
ATOM     16  C   UNK A  0       -3.099  -4.071  -2.544  0.00  0.00    +0.300 C 
ATOM     17  O   UNK A  0       -4.233  -4.156  -2.113  0.00  0.00    -0.253 OA
ATOM     18  N   ALA A  1       -2.724  -4.815  -3.603  0.00  0.00    -0.295 N 
ATOM     19  H   ALA A  1       -1.819  -4.747  -3.947  0.00  0.00    +0.151 HD
BRANCH  18  20
ATOM     20  CA  ALA A  1       -3.681  -5.727  -4.234  0.00  0.00    +0.097 C 
ATOM     21  CB  ALA A  1       -4.519  -4.958  -5.258  0.00  0.00    +0.030 C 
BRANCH  20  22
ATOM     22  C   ALA A  1       -2.923  -6.854  -4.938  0.00  0.00    +0.177 C 
BRANCH  22  23
ATOM     23  O   ALA A  1       -2.153  -6.312  -6.013  0.00  0.00    -0.393 OA
ATOM     24  H   ALA A  1       -1.645  -6.972  -6.505  0.00  0.00    +0.209 HD
ENDBRANCH  22  23
ENDBRANCH  20  22
ENDBRANCH  18  20
ENDBRANCH   3  14
BRANCH   1  25
ATOM     25  C   UNK A  0        0.002  -0.004   0.002  0.00  0.00    +0.051 C 
ATOM     26  C   UNK A  0        0.742  -0.511   1.242  0.00  0.00    +0.024 C 
ATOM     27  C   UNK A  0       -0.019   1.526   0.010  0.00  0.00    +0.024 C 
ENDBRANCH   1  25
TORSDOF 6
