REMARK  Name = ZINC000082096653
REMARK                            x       y       z     vdW  Elec       q    Type
REMARK                         _______ _______ _______ _____ _____    ______ ____
ROOT
ATOM      1  C   LIG    1        2.528  -0.816   5.296  0.00  0.00    +0.180 C 
ENDROOT
BRANCH   1   2
ATOM      2  N   LIG    1        1.272  -0.450   4.627  0.00  0.00    -0.293 NA
ATOM      3  C   LIG    1        0.115  -1.002   5.342  0.00  0.00    +0.085 C 
ATOM      4  C   LIG    1       -1.176  -0.483   4.705  0.00  0.00    +0.016 C 
ATOM      5  C   LIG    1       -1.216  -0.901   3.232  0.00  0.00    +0.014 C 
ATOM      6  C   LIG    1        0.025  -0.354   2.521  0.00  0.00    +0.069 C 
ATOM      7  C   LIG    1        1.281  -0.877   3.221  0.00  0.00    +0.096 C 
BRANCH   6   8
ATOM      8  C   LIG    1        0.023  -0.811   1.085  0.00  0.00    +0.114 A 
ATOM      9  N   LIG    1        0.034  -2.052   0.681  0.00  0.00    -0.240 NA
ATOM     10  C   LIG    1        0.029  -2.081  -0.660  0.00  0.00    +0.130 A 
ATOM     11  C   LIG    1        0.009  -0.810  -1.104  0.00  0.00    +0.106 A 
ATOM     12  N   LIG    1        0.002  -0.004   0.002  0.00  0.00    -0.337 N 
ATOM     13  C   LIG    1       -0.018   1.461   0.010  0.00  0.00    +0.150 C 
ENDBRANCH   6   8
ENDBRANCH   1   2
BRANCH   1  14
ATOM     14  C   LIG    1        2.591  -0.150   6.646  0.00  0.00    +0.227 C 
ATOM     15  N   LIG    1        3.660  -0.342   7.444  0.00  0.00    -0.314 N 
ATOM     16  H   LIG    1        4.389  -0.910   7.149  0.00  0.00    +0.149 HD
ATOM     17  O   LIG    1        1.679   0.560   7.014  0.00  0.00    -0.274 OA
BRANCH  15  18
ATOM     18  C   LIG    1        3.720   0.305   8.756  0.00  0.00    +0.109 C 
BRANCH  18  19
ATOM     19  C   LIG    1        5.028  -0.075   9.453  0.00  0.00    +0.054 C 
BRANCH  19  20
ATOM     20  C   LIG    1        5.091   0.591  10.803  0.00  0.00    -0.046 A 
ATOM     21  C   LIG    1        4.580  -0.052  11.915  0.00  0.00    +0.006 A 
ATOM     22  C   LIG    1        4.641   0.556  13.155  0.00  0.00    +0.038 A 
ATOM     23  C   LIG    1        5.205   1.814  13.281  0.00  0.00    +0.123 A 
ATOM     24  F   LIG    1        5.261   2.412  14.491  0.00  0.00    -0.205 F 
ATOM     25  C   LIG    1        5.711   2.460  12.165  0.00  0.00    +0.038 A 
ATOM     26  C   LIG    1        5.653   1.848  10.928  0.00  0.00    +0.006 A 
ENDBRANCH  19  20
ENDBRANCH  18  19
ENDBRANCH  15  18
ENDBRANCH   1  14
TORSDOF 6
