REMARK  Name = ZINC000082137103
REMARK                            x       y       z     vdW  Elec       q    Type
REMARK                         _______ _______ _______ _____ _____    ______ ____
ROOT
ATOM      1  C   LIG    1       -0.386   1.429   0.054  0.00  0.00    +0.151 C 
ATOM      2  N   LIG    1       -0.162  -0.019   0.021  0.00  0.00    -0.327 N 
ATOM      3  C   LIG    1        0.120  -0.821   1.094  0.00  0.00    +0.142 A 
ATOM      4  N   LIG    1        0.256  -2.061   0.697  0.00  0.00    -0.227 NA
ATOM      5  C   LIG    1        0.079  -2.132  -0.644  0.00  0.00    +0.091 A 
ATOM      6  C   LIG    1        0.115  -3.184  -1.565  0.00  0.00    +0.058 A 
ATOM      7  C   LIG    1       -0.110  -2.938  -2.890  0.00  0.00    +0.108 A 
ATOM      8  C   LIG    1       -0.375  -1.651  -3.336  0.00  0.00    +0.030 A 
ATOM      9  C   LIG    1       -0.417  -0.598  -2.447  0.00  0.00    +0.030 A 
ATOM     10  C   LIG    1       -0.191  -0.827  -1.097  0.00  0.00    +0.069 A 
ENDROOT
BRANCH   3  11
ATOM     11  C   LIG    1        0.245  -0.357   2.494  0.00  0.00    +0.020 A 
ATOM     12  C   LIG    1        0.151  -1.257   3.561  0.00  0.00    +0.031 A 
ATOM     13  C   LIG    1        0.274  -0.782   4.850  0.00  0.00    +0.111 A 
ATOM     14  N   LIG    1        0.478   0.500   5.083  0.00  0.00    -0.263 NA
ATOM     15  C   LIG    1        0.572   1.383   4.107  0.00  0.00    +0.111 A 
ATOM     16  C   LIG    1        0.467   0.993   2.787  0.00  0.00    +0.031 A 
ENDBRANCH   3  11
BRANCH   7  17
ATOM     17  S   LIG    1       -0.061  -4.268  -4.044  0.00  0.00    +0.061 S 
ATOM     18  O   LIG    1       -0.328  -5.452  -3.304  0.00  0.00    -0.153 OA
ATOM     19  O   LIG    1       -0.839  -3.859  -5.161  0.00  0.00    -0.153 OA
BRANCH  17  20
ATOM     20  N   LIG    1        1.500  -4.394  -4.582  0.00  0.00    -0.177 NA
ATOM     21  C   LIG    1        2.555  -5.223  -3.971  0.00  0.00    +0.109 C 
ATOM     22  C   LIG    1        3.560  -5.492  -5.122  0.00  0.00    +0.018 C 
ATOM     23  C   LIG    1        3.537  -4.137  -5.876  0.00  0.00    +0.018 C 
ATOM     24  C   LIG    1        2.064  -3.693  -5.744  0.00  0.00    +0.109 C 
ENDBRANCH  17  20
ENDBRANCH   7  17
TORSDOF 3
