REMARK  Name = ZINC000095987641
REMARK                            x       y       z     vdW  Elec       q    Type
REMARK                         _______ _______ _______ _____ _____    ______ ____
ROOT
ATOM      1  N   VAL A  1        0.680   0.150  -2.423  0.00  0.00    -0.294 N 
ATOM      2  C   UNK A  0        1.129   1.388  -2.709  0.00  0.00    +0.300 C 
ATOM      3  O   UNK A  0        1.771   2.007  -1.883  0.00  0.00    -0.253 OA
ATOM      4  N   UNK A  0        0.866   1.940  -3.910  0.00  0.00    -0.294 N 
ATOM      5  H   UNK A  0        0.353   1.445  -4.569  0.00  0.00    +0.151 HD
ATOM      6  H   VAL A  1        0.167  -0.344  -3.082  0.00  0.00    +0.151 HD
ENDROOT
BRANCH   4   7
ATOM      7  C   UNK A  0        1.353   3.285  -4.221  0.00  0.00    +0.110 C 
ATOM      8  C   UNK A  0        0.329   4.350  -3.769  0.00  0.00    +0.053 C 
ATOM      9  C   UNK A  0       -0.068   5.068  -5.079  0.00  0.00    +0.162 C 
ATOM     10  O   UNK A  0        1.048   4.854  -5.970  0.00  0.00    -0.370 OA
ATOM     11  C   UNK A  0        1.457   3.484  -5.749  0.00  0.00    +0.169 C 
BRANCH  11  12
ATOM     12  C   UNK A  0        2.875   3.279  -6.217  0.00  0.00    -0.014 A 
ATOM     13  C   UNK A  0        3.821   4.265  -6.008  0.00  0.00    +0.009 A 
ATOM     14  C   UNK A  0        5.122   4.079  -6.436  0.00  0.00    +0.041 A 
ATOM     15  C   UNK A  0        5.479   2.904  -7.074  0.00  0.00    +0.158 A 
ATOM     16  C   UNK A  0        4.530   1.914  -7.283  0.00  0.00    +0.159 A 
ATOM     17  F   UNK A  0        4.877   0.766  -7.906  0.00  0.00    -0.202 F 
ATOM     18  F   UNK A  0        6.751   2.721  -7.493  0.00  0.00    -0.202 F 
ATOM     19  C   UNK A  0        3.230   2.102  -6.849  0.00  0.00    +0.047 A 
ENDBRANCH  11  12
ENDBRANCH   4   7
BRANCH   1  20
ATOM     20  CA  VAL A  1        0.966  -0.450  -1.117  0.00  0.00    +0.102 C 
BRANCH  20  21
ATOM     21  CB  VAL A  1       -0.086   0.006  -0.105  0.00  0.00    +0.005 C 
ATOM     22  CG2 VAL A  1        0.152  -0.699   1.232  0.00  0.00    +0.009 C 
ATOM     23  CG1 VAL A  1        0.018   1.520   0.092  0.00  0.00    +0.009 C 
ENDBRANCH  20  21
BRANCH  20  24
ATOM     24  C   VAL A  1        0.931  -1.975  -1.237  0.00  0.00    +0.178 C 
BRANCH  24  25
ATOM     25  O   VAL A  1       -0.396  -2.396  -1.562  0.00  0.00    -0.393 OA
ATOM     26  H   VAL A  1       -0.492  -3.354  -1.654  0.00  0.00    +0.209 HD
ENDBRANCH  24  25
ENDBRANCH  20  24
ENDBRANCH   1  20
TORSDOF 6
