REMARK  Name = ZINC000000223139
REMARK                            x       y       z     vdW  Elec       q    Type
REMARK                         _______ _______ _______ _____ _____    ______ ____
ROOT
ATOM      1  C   LIG    1       -2.796  -2.397   0.016  0.00  0.00    +0.062 C 
ATOM      2  C   LIG    1       -3.989  -1.483   0.032  0.00  0.00    +0.095 C 
ATOM      3  C   LIG    1       -5.235  -2.231  -0.356  0.00  0.00    +0.062 C 
ATOM      4  C   LIG    1       -5.279  -3.574  -0.341  0.00  0.00    +0.086 C 
ATOM      5  N   LIG    1       -4.180  -4.307   0.016  0.00  0.00    -0.315 N 
ATOM      6  C   LIG    1       -4.335  -5.712   0.401  0.00  0.00    +0.134 C 
ATOM      7  C   LIG    1       -2.938  -3.734   0.016  0.00  0.00    +0.086 C 
ENDROOT
BRANCH   2   8
ATOM      8  C   LIG    1       -4.166  -0.906   1.413  0.00  0.00    -0.035 A 
ATOM      9  C   LIG    1       -4.400  -1.744   2.487  0.00  0.00    +0.008 A 
ATOM     10  C   LIG    1       -4.563  -1.217   3.753  0.00  0.00    +0.046 A 
ATOM     11  C   LIG    1       -4.491   0.154   3.947  0.00  0.00    +0.117 A 
ATOM     12  C   LIG    1       -4.256   0.994   2.868  0.00  0.00    +0.046 A 
ATOM     13  C   LIG    1       -4.089   0.462   1.604  0.00  0.00    +0.008 A 
BRANCH  11  14
ATOM     14  O   LIG    1       -4.651   0.675   5.192  0.00  0.00    -0.507 OA
ATOM     15  H   LIG    1       -3.827   0.761   5.691  0.00  0.00    +0.292 HD
ENDBRANCH  11  14
ENDBRANCH   2   8
BRANCH   3  16
ATOM     16  C   LIG    1       -6.387  -1.505  -0.738  0.00  0.00    +0.337 C 
ATOM     17  O   LIG    1       -7.403  -2.097  -1.050  0.00  0.00    -0.245 OA
BRANCH  16  18
ATOM     18  O   LIG    1       -6.359  -0.156  -0.758  0.00  0.00    -0.462 OA
BRANCH  18  19
ATOM     19  C   LIG    1       -7.558   0.512  -1.154  0.00  0.00    +0.229 C 
ATOM     20  C   LIG    1       -7.336   2.025  -1.116  0.00  0.00    +0.048 C 
ENDBRANCH  18  19
ENDBRANCH  16  18
ENDBRANCH   3  16
BRANCH   1  21
ATOM     21  C   LIG    1       -1.497  -1.839   0.006  0.00  0.00    +0.337 C 
ATOM     22  O   LIG    1       -0.522  -2.567  -0.007  0.00  0.00    -0.245 OA
BRANCH  21  23
ATOM     23  O   LIG    1       -1.339  -0.499   0.012  0.00  0.00    -0.462 OA
BRANCH  23  24
ATOM     24  C   LIG    1        0.002  -0.004   0.002  0.00  0.00    +0.229 C 
ATOM     25  C   LIG    1       -0.019   1.526   0.010  0.00  0.00    +0.048 C 
ENDBRANCH  23  24
ENDBRANCH  21  23
ENDBRANCH   1  21
TORSDOF 8
