REMARK  Name = ZINC000074561258
REMARK                            x       y       z     vdW  Elec       q    Type
REMARK                         _______ _______ _______ _____ _____    ______ ____
ROOT
ATOM      1  C   LIG    1       -1.643  -7.628  -2.533  0.00  0.00    +0.076 C 
ENDROOT
BRANCH   1   2
ATOM      2  C   LIG    1       -1.188  -8.460  -3.704  0.00  0.00    +0.065 A 
ATOM      3  C   LIG    1       -0.688  -9.765  -3.637  0.00  0.00    +0.045 A 
ATOM      4  C   LIG    1       -0.395 -10.164  -4.896  0.00  0.00    +0.115 A 
ATOM      5  N   LIG    1       -0.692  -9.143  -5.731  0.00  0.00    -0.240 N 
ATOM      6  N   LIG    1       -1.188  -8.085  -4.958  0.00  0.00    -0.171 NA
BRANCH   5   7
ATOM      7  C   LIG    1       -0.531  -9.142  -7.124  0.00  0.00    +0.068 A 
ATOM      8  C   LIG    1       -0.031 -10.266  -7.766  0.00  0.00    +0.028 A 
ATOM      9  C   LIG    1        0.127 -10.264  -9.139  0.00  0.00    +0.005 A 
ATOM     10  C   LIG    1       -0.213  -9.143  -9.874  0.00  0.00    +0.038 A 
ATOM     11  C   LIG    1       -0.713  -8.019  -9.236  0.00  0.00    +0.125 A 
ATOM     12  F   LIG    1       -1.044  -6.926  -9.957  0.00  0.00    -0.205 F 
ATOM     13  C   LIG    1       -0.878  -8.019  -7.863  0.00  0.00    +0.066 A 
ENDBRANCH   5   7
ENDBRANCH   1   2
BRANCH   1  14
ATOM     14  C   LIG    1       -0.887  -6.298  -2.528  0.00  0.00    +0.110 C 
BRANCH  14  15
ATOM     15  N   LIG    1       -1.329  -5.488  -1.390  0.00  0.00    -0.315 N 
ATOM     16  H   LIG    1       -2.006  -5.831  -0.785  0.00  0.00    +0.149 HD
ATOM     17  C   LIG    1       -0.796  -4.268  -1.183  0.00  0.00    +0.219 C 
ATOM     18  O   LIG    1        0.050  -3.840  -1.939  0.00  0.00    -0.275 OA
BRANCH  17  19
ATOM     19  C   LIG    1       -1.252  -3.435  -0.013  0.00  0.00    +0.154 C 
BRANCH  19  20
ATOM     20  C   LIG    1       -0.506  -2.126  -0.008  0.00  0.00    +0.093 A 
ATOM     21  C   LIG    1       -1.072  -0.830   0.002  0.00  0.00    +0.071 A 
ATOM     22  C   LIG    1        0.002  -0.004   0.002  0.00  0.00    +0.134 A 
ATOM     23  C   LIG    1       -0.018   1.503   0.010  0.00  0.00    +0.089 C 
ATOM     24  O   LIG    1        1.086  -0.792  -0.013  0.00  0.00    -0.360 OA
ATOM     25  N   LIG    1        0.785  -1.963  -0.013  0.00  0.00    -0.083 NA
ENDBRANCH  19  20
ENDBRANCH  17  19
ENDBRANCH  14  15
ENDBRANCH   1  14
TORSDOF 6
