REMARK  Name = ZINC000095987197
REMARK                            x       y       z     vdW  Elec       q    Type
REMARK                         _______ _______ _______ _____ _____    ______ ____
ROOT
ATOM      1  C   LIG    1        0.023  -3.208  -1.629  0.00  0.00    +0.039 A 
ATOM      2  C   LIG    1        0.228  -4.495  -1.129  0.00  0.00    +0.053 A 
ATOM      3 CL   LIG    1        0.455  -4.740   0.575  0.00  0.00    -0.083 Cl
ATOM      4  C   LIG    1        0.239  -5.573  -1.989  0.00  0.00    +0.044 A 
ATOM      5  C   LIG    1        0.058  -5.377  -3.353  0.00  0.00    +0.035 A 
ATOM      6  C   LIG    1       -0.140  -4.095  -3.853  0.00  0.00    +0.024 A 
ATOM      7  C   LIG    1       -0.158  -3.015  -2.997  0.00  0.00    +0.015 A 
ENDROOT
BRANCH   1   8
ATOM      8  C   LIG    1        0.005  -2.047  -0.706  0.00  0.00    +0.183 A 
ATOM      9  N   LIG    1        0.169  -2.102   0.598  0.00  0.00    -0.152 NA
ATOM     10  N   LIG    1        0.084  -0.782   1.071  0.00  0.00    -0.262 N 
ATOM     11  H   LIG    1        0.164  -0.490   1.993  0.00  0.00    +0.190 HD
ATOM     12  C   LIG    1       -0.138  -0.004  -0.003  0.00  0.00    +0.122 A 
ATOM     13  C   LIG    1       -0.303   1.494   0.011  0.00  0.00    +0.087 C 
ATOM     14  N   LIG    1       -0.181  -0.769  -1.062  0.00  0.00    -0.212 NA
ENDBRANCH   1   8
BRANCH   5  15
ATOM     15  N   LIG    1        0.075  -6.470  -4.223  0.00  0.00    -0.281 N 
ATOM     16  H   LIG    1       -0.267  -7.329  -3.930  0.00  0.00    +0.155 HD
ATOM     17  C   LIG    1        0.566  -6.331  -5.471  0.00  0.00    +0.248 C 
ATOM     18  O   LIG    1        1.081  -5.283  -5.808  0.00  0.00    -0.270 OA
BRANCH  17  19
ATOM     19  C   LIG    1        0.477  -7.457  -6.433  0.00  0.00    +0.044 A 
ATOM     20  C   LIG    1       -0.119  -8.679  -6.054  0.00  0.00    +0.031 A 
ATOM     21  C   LIG    1       -0.197  -9.695  -6.944  0.00  0.00    +0.089 A 
ATOM     22  N   LIG    1        0.301  -9.564  -8.200  0.00  0.00    -0.318 N 
ATOM     23  C   LIG    1        0.882  -8.418  -8.602  0.00  0.00    +0.252 A 
ATOM     24  O   LIG    1        1.322  -8.324  -9.736  0.00  0.00    -0.268 OA
ATOM     25  C   LIG    1        0.203 -10.688  -9.134  0.00  0.00    +0.152 C 
ATOM     26  C   LIG    1        0.983  -7.328  -7.715  0.00  0.00    +0.083 A 
ENDBRANCH  17  19
ENDBRANCH   5  15
TORSDOF 3
