REMARK  Name = ZINC000001003783
REMARK                            x       y       z     vdW  Elec       q    Type
REMARK                         _______ _______ _______ _____ _____    ______ ____
ROOT
ATOM      1  C   LIG    1       -2.079  -4.064   0.386  0.00  0.00    +0.033 A 
ATOM      2  C   LIG    1       -3.360  -4.599   0.349  0.00  0.00    +0.025 A 
ATOM      3  C   LIG    1       -3.534  -5.957   0.167  0.00  0.00    +0.030 A 
ATOM      4  C   LIG    1       -2.434  -6.785   0.033  0.00  0.00    +0.109 A 
ATOM      5  C   LIG    1       -1.157  -6.256   0.075  0.00  0.00    +0.030 A 
ATOM      6  C   LIG    1       -0.976  -4.898   0.251  0.00  0.00    +0.025 A 
ENDROOT
BRANCH   4   7
ATOM      7  S   LIG    1       -2.661  -8.518  -0.191  0.00  0.00    +0.072 S 
ATOM      8  O   LIG    1       -1.438  -9.019  -0.713  0.00  0.00    -0.150 OA
ATOM      9  O   LIG    1       -3.910  -8.678  -0.849  0.00  0.00    -0.150 OA
BRANCH   7  10
ATOM     10  N   LIG    1       -2.836  -9.188   1.314  0.00  0.00    -0.216 N 
ATOM     11  H   LIG    1       -3.658  -9.647   1.548  0.00  0.00    +0.174 HD
BRANCH  10  12
ATOM     12  C   LIG    1       -1.800  -9.092   2.246  0.00  0.00    +0.048 A 
ATOM     13  C   LIG    1       -2.075  -8.730   3.558  0.00  0.00    +0.024 A 
ATOM     14  C   LIG    1       -1.049  -8.641   4.478  0.00  0.00    +0.002 A 
ATOM     15  C   LIG    1        0.253  -8.902   4.092  0.00  0.00    +0.000 A 
ATOM     16  C   LIG    1        0.531  -9.258   2.785  0.00  0.00    +0.002 A 
ATOM     17  C   LIG    1       -0.491  -9.354   1.861  0.00  0.00    +0.024 A 
ENDBRANCH  10  12
ENDBRANCH   7  10
ENDBRANCH   4   7
BRANCH   1  18
ATOM     18  N   LIG    1       -1.899  -2.688   0.564  0.00  0.00    -0.297 N 
ATOM     19  H   LIG    1       -2.410  -2.216   1.239  0.00  0.00    +0.154 HD
BRANCH  18  20
ATOM     20  C   LIG    1       -1.015  -2.019  -0.203  0.00  0.00    +0.141 C 
ATOM     21  S   LIG    1       -0.034  -2.870  -1.319  0.00  0.00    -0.018 S 
BRANCH  20  22
ATOM     22  N   LIG    1       -0.904  -0.681  -0.091  0.00  0.00    -0.268 N 
ATOM     23  H   LIG    1       -1.460  -0.199   0.541  0.00  0.00    +0.156 HD
ATOM     24  C   LIG    1       -0.020  -0.012  -0.858  0.00  0.00    +0.215 C 
ATOM     25  C   LIG    1        0.104   1.485  -0.734  0.00  0.00    +0.109 C 
ATOM     26  O   LIG    1        0.675  -0.614  -1.648  0.00  0.00    -0.276 OA
ENDBRANCH  20  22
ENDBRANCH  18  20
ENDBRANCH   1  18
TORSDOF 6
