REMARK  Name = ZINC000058180166
REMARK                            x       y       z     vdW  Elec       q    Type
REMARK                         _______ _______ _______ _____ _____    ______ ____
ROOT
ATOM      1  O   LIG    1       -0.092   0.011  -0.170  0.00  0.00    -0.270 OA
ATOM      2  C   LIG    1       -0.014   1.212   0.009  0.00  0.00    +0.250 C 
ATOM      3  N   LIG    1       -1.135   1.940   0.183  0.00  0.00    -0.295 N 
ATOM      4  C   LIG    1       -2.450   1.290   0.283  0.00  0.00    +0.123 C 
ATOM      5  C   LIG    1       -3.407   1.964  -0.700  0.00  0.00    +0.104 C 
ATOM      6  N   LIG    1       -3.410   3.413  -0.463  0.00  0.00    -0.291 NA
ATOM      7  C   LIG    1       -2.086   3.997  -0.715  0.00  0.00    +0.104 C 
ATOM      8  C   LIG    1       -1.075   3.407   0.274  0.00  0.00    +0.123 C 
ENDROOT
BRANCH   2   9
ATOM      9  C   LIG    1        1.307   1.872   0.028  0.00  0.00    +0.075 A 
ATOM     10  C   LIG    1        1.618   2.787   1.036  0.00  0.00    +0.054 A 
ATOM     11  C   LIG    1        2.856   3.400   1.048  0.00  0.00    +0.124 A 
ATOM     12  F   LIG    1        3.159   4.286   2.022  0.00  0.00    -0.205 F 
ATOM     13  C   LIG    1        3.788   3.109   0.065  0.00  0.00    +0.041 A 
ATOM     14  C   LIG    1        3.486   2.204  -0.936  0.00  0.00    +0.042 A 
ATOM     15  C   LIG    1        2.253   1.579  -0.958  0.00  0.00    +0.136 A 
ATOM     16  F   LIG    1        1.960   0.694  -1.937  0.00  0.00    -0.205 F 
ENDBRANCH   2   9
BRANCH   6  17
ATOM     17  C   LIG    1       -4.441   4.077  -1.273  0.00  0.00    +0.183 C 
BRANCH  17  18
ATOM     18  C   LIG    1       -5.805   3.628  -0.816  0.00  0.00    +0.241 A 
ATOM     19  N   LIG    1       -6.544   4.194   0.108  0.00  0.00    -0.195 NA
ATOM     20  C   LIG    1       -7.666   3.456   0.176  0.00  0.00    +0.175 A 
ATOM     21  N   LIG    1       -7.554   2.496  -0.694  0.00  0.00    -0.061 NA
ATOM     22  O   LIG    1       -6.495   2.581  -1.278  0.00  0.00    -0.337 OA
BRANCH  20  23
ATOM     23  C   LIG    1       -8.838   3.697   1.091  0.00  0.00    +0.060 C 
ATOM     24  C   LIG    1       -9.205   2.587   2.078  0.00  0.00    +0.012 C 
ATOM     25  C   LIG    1      -10.097   2.857   0.865  0.00  0.00    +0.012 C 
ENDBRANCH  20  23
ENDBRANCH  17  18
ENDBRANCH   6  17
TORSDOF 4
