REMARK  Name = ZINC000058194989
REMARK                            x       y       z     vdW  Elec       q    Type
REMARK                         _______ _______ _______ _____ _____    ______ ____
ROOT
ATOM      1  C   LIG    1        0.061  -4.252  -0.036  0.00  0.00    +0.250 C 
ATOM      2  O   LIG    1        0.181  -4.868   1.006  0.00  0.00    -0.270 OA
ATOM      3  N   LIG    1       -0.038  -4.917  -1.204  0.00  0.00    -0.297 N 
ATOM      4  C   LIG    1       -0.129  -6.383  -1.226  0.00  0.00    +0.109 C 
ATOM      5  C   LIG    1        0.957  -6.936  -2.147  0.00  0.00    +0.032 C 
ATOM      6  C   LIG    1        0.839  -6.278  -3.524  0.00  0.00    +0.078 C 
ATOM      7  C   LIG    1        1.042  -4.767  -3.388  0.00  0.00    +0.032 C 
ATOM      8  C   LIG    1       -0.050  -4.189  -2.481  0.00  0.00    +0.109 C 
ENDROOT
BRANCH   1   9
ATOM      9  C   LIG    1        0.022  -2.778  -0.021  0.00  0.00    +0.078 A 
ATOM     10  C   LIG    1        1.047  -2.052   0.602  0.00  0.00    +0.129 A 
ATOM     11  C   LIG    1        1.004  -0.666   0.605  0.00  0.00    +0.049 A 
ATOM     12  C   LIG    1       -0.051  -0.005   0.007  0.00  0.00    -0.047 A 
ATOM     13  C   LIG    1       -0.095   1.501   0.019  0.00  0.00    +0.044 C 
ATOM     14  C   LIG    1       -1.066  -0.718  -0.609  0.00  0.00    +0.004 A 
ATOM     15  C   LIG    1       -1.036  -2.096  -0.626  0.00  0.00    +0.017 A 
BRANCH  10  16
ATOM     16  O   LIG    1        2.080  -2.703   1.193  0.00  0.00    -0.506 OA
ATOM     17  H   LIG    1        2.828  -2.872   0.604  0.00  0.00    +0.292 HD
ENDBRANCH  10  16
ENDBRANCH   1   9
BRANCH   6  18
ATOM     18  C   LIG    1        1.891  -6.845  -4.443  0.00  0.00    +0.217 C 
ATOM     19  N   LIG    1        1.909  -8.165  -4.712  0.00  0.00    -0.308 N 
ATOM     20  H   LIG    1        1.246  -8.751  -4.314  0.00  0.00    +0.149 HD
ATOM     21  O   LIG    1        2.720  -6.112  -4.940  0.00  0.00    -0.276 OA
BRANCH  19  22
ATOM     22  C   LIG    1        2.932  -8.716  -5.605  0.00  0.00    +0.178 C 
BRANCH  22  23
ATOM     23  C   LIG    1        2.733 -10.204  -5.739  0.00  0.00    +0.122 A 
ATOM     24  O   LIG    1        3.286 -11.144  -4.956  0.00  0.00    -0.466 OA
ATOM     25  C   LIG    1        2.885 -12.359  -5.364  0.00  0.00    +0.195 A 
ATOM     26  C   LIG    1        2.074 -12.205  -6.425  0.00  0.00    +0.041 A 
ATOM     27  C   LIG    1        1.975 -10.816  -6.667  0.00  0.00    +0.046 A 
ENDBRANCH  22  23
ENDBRANCH  19  22
ENDBRANCH   6  18
TORSDOF 5
