REMARK  Name = ZINC000095987523
REMARK                            x       y       z     vdW  Elec       q    Type
REMARK                         _______ _______ _______ _____ _____    ______ ____
ROOT
ATOM      1  N   LIG    1        0.042  -3.263  -1.491  0.00  0.00    -0.253 N 
ATOM      2  H   LIG    1        0.056  -4.150  -1.099  0.00  0.00    +0.158 HD
ATOM      3  C   LIG    1        0.035  -3.117  -2.830  0.00  0.00    +0.306 C 
ATOM      4  O   LIG    1        0.017  -2.005  -3.321  0.00  0.00    -0.252 OA
ATOM      5  N   LIG    1        0.047  -4.204  -3.627  0.00  0.00    -0.288 N 
ATOM      6  H   LIG    1        0.061  -5.092  -3.235  0.00  0.00    +0.151 HD
ENDROOT
BRANCH   5   7
ATOM      7  C   LIG    1        0.040  -4.046  -5.083  0.00  0.00    +0.160 C 
ATOM      8  C   LIG    1       -1.386  -3.897  -5.571  0.00  0.00    +0.233 C 
ATOM      9  O   LIG    1       -2.309  -4.122  -4.816  0.00  0.00    -0.274 OA
ATOM     10  N   LIG    1       -1.631  -3.530  -6.829  0.00  0.00    -0.314 N 
ATOM     11  H   LIG    1       -2.547  -3.444  -7.136  0.00  0.00    +0.149 HD
ATOM     12  C   LIG    1       -0.520  -3.250  -7.753  0.00  0.00    +0.104 C 
ATOM     13  C   LIG    1        0.152  -4.572  -8.127  0.00  0.00    +0.019 C 
ATOM     14  C   LIG    1        1.213  -4.947  -7.109  0.00  0.00    +0.004 C 
ATOM     15  C   LIG    1        0.655  -5.285  -5.738  0.00  0.00    +0.032 C 
ENDBRANCH   5   7
BRANCH   1  16
ATOM     16  C   LIG    1        0.029  -2.132  -0.663  0.00  0.00    +0.149 A 
ATOM     17  N   LIG    1        0.035  -2.139   0.649  0.00  0.00    -0.151 NA
ATOM     18  N   LIG    1        0.023  -0.811   1.094  0.00  0.00    -0.235 N 
ATOM     19  C   LIG    1        0.002  -0.004   0.002  0.00  0.00    +0.044 A 
ATOM     20  C   LIG    1       -0.018   1.503   0.010  0.00  0.00    +0.066 C 
ATOM     21  C   LIG    1        0.008  -0.795  -1.095  0.00  0.00    +0.068 A 
BRANCH  18  22
ATOM     22  C   LIG    1        0.026  -0.389   2.430  0.00  0.00    +0.066 A 
ATOM     23  C   LIG    1       -0.652  -1.125   3.393  0.00  0.00    +0.028 A 
ATOM     24  C   LIG    1       -0.643  -0.709   4.711  0.00  0.00    +0.005 A 
ATOM     25  C   LIG    1        0.030   0.444   5.069  0.00  0.00    -0.050 A 
ATOM     26  C   LIG    1        0.032   0.898   6.506  0.00  0.00    +0.044 C 
ATOM     27  C   LIG    1        0.701   1.183   4.111  0.00  0.00    +0.005 A 
ATOM     28  C   LIG    1        0.701   0.769   2.793  0.00  0.00    +0.028 A 
ENDBRANCH  18  22
ENDBRANCH   1  16
TORSDOF 3
