REMARK  Name = ZINC000095987449
REMARK                            x       y       z     vdW  Elec       q    Type
REMARK                         _______ _______ _______ _____ _____    ______ ____
ROOT
ATOM      1  N   LIG    1       -2.401  -0.044   0.013  0.00  0.00    -0.265 N 
ATOM      2  H   LIG    1       -2.429   0.922   0.092  0.00  0.00    +0.157 HD
ATOM      3  C   LIG    1       -3.548  -0.745  -0.087  0.00  0.00    +0.307 C 
ATOM      4  O   LIG    1       -3.519  -1.961  -0.094  0.00  0.00    -0.252 OA
ATOM      5  N   LIG    1       -4.727  -0.099  -0.180  0.00  0.00    -0.278 N 
ENDROOT
BRANCH   1   6
ATOM      6  C   LIG    1       -1.169  -0.712   0.003  0.00  0.00    +0.103 A 
ATOM      7  C   LIG    1       -0.303  -0.583   1.054  0.00  0.00    -0.023 A 
ATOM      8  C   LIG    1       -0.664   0.278   2.237  0.00  0.00    +0.046 C 
ATOM      9  C   LIG    1        0.926  -1.256   1.016  0.00  0.00    +0.023 A 
ATOM     10  C   LIG    1        1.240  -2.032  -0.047  0.00  0.00    +0.089 A 
ATOM     11  N   LIG    1        0.382  -2.162  -1.093  0.00  0.00    -0.317 N 
ATOM     12  C   LIG    1        0.751  -3.003  -2.234  0.00  0.00    +0.152 C 
ATOM     13  C   LIG    1       -0.805  -1.525  -1.093  0.00  0.00    +0.273 A 
ATOM     14  O   LIG    1       -1.566  -1.650  -2.039  0.00  0.00    -0.266 OA
ENDBRANCH   1   6
BRANCH   5  15
ATOM     15  C   LIG    1       -4.762   1.366  -0.172  0.00  0.00    +0.143 C 
BRANCH  15  16
ATOM     16  C   LIG    1       -4.655   1.886  -1.607  0.00  0.00    +0.076 C 
ATOM     17  C   LIG    1       -4.566   3.414  -1.591  0.00  0.00    +0.042 C 
ATOM     18  C   LIG    1       -3.401   1.310  -2.267  0.00  0.00    +0.042 C 
BRANCH  16  19
ATOM     19  O   LIG    1       -5.810   1.484  -2.347  0.00  0.00    -0.388 OA
ATOM     20  H   LIG    1       -6.644   1.815  -1.985  0.00  0.00    +0.210 HD
ENDBRANCH  16  19
ENDBRANCH  15  16
ENDBRANCH   5  15
BRANCH   5  21
ATOM     21  C   LIG    1       -5.974  -0.861  -0.289  0.00  0.00    +0.144 C 
BRANCH  21  22
ATOM     22  C   LIG    1       -6.518  -1.132   1.089  0.00  0.00    -0.030 A 
ATOM     23  C   LIG    1       -6.143  -2.276   1.768  0.00  0.00    +0.005 A 
ATOM     24  C   LIG    1       -6.642  -2.526   3.033  0.00  0.00    +0.000 A 
ATOM     25  C   LIG    1       -7.517  -1.630   3.619  0.00  0.00    +0.000 A 
ATOM     26  C   LIG    1       -7.892  -0.486   2.941  0.00  0.00    +0.000 A 
ATOM     27  C   LIG    1       -7.389  -0.234   1.678  0.00  0.00    +0.005 A 
ENDBRANCH  21  22
ENDBRANCH   5  21
TORSDOF 6
