REMARK  Name = ZINC000009571992
REMARK                            x       y       z     vdW  Elec       q    Type
REMARK                         _______ _______ _______ _____ _____    ______ ____
ROOT
ATOM      1  C   LIG    1       -2.613  -2.594   0.013  0.00  0.00    +0.138 A 
ATOM      2  C   LIG    1       -3.806  -1.875   0.022  0.00  0.00    +0.066 A 
ATOM      3  C   LIG    1       -5.007  -2.555   0.030  0.00  0.00    +0.117 A 
ATOM      4  N   LIG    1       -5.056  -3.875   0.029  0.00  0.00    -0.237 NA
ATOM      5  C   LIG    1       -3.958  -4.611   0.020  0.00  0.00    +0.153 A 
ATOM      6  N   LIG    1       -4.016  -5.994   0.020  0.00  0.00    -0.281 N 
ATOM      7  C   LIG    1       -5.318  -6.665   0.035  0.00  0.00    +0.155 C 
ATOM      8  C   LIG    1       -2.890  -6.728   0.016  0.00  0.00    +0.334 A 
ATOM      9  O   LIG    1       -2.987  -7.940   0.021  0.00  0.00    -0.246 OA
ATOM     10  N   LIG    1       -1.664  -6.183   0.003  0.00  0.00    -0.256 N 
ATOM     11  C   LIG    1       -1.496  -4.842  -0.003  0.00  0.00    +0.270 A 
ATOM     12  O   LIG    1       -0.383  -4.352  -0.014  0.00  0.00    -0.267 OA
ATOM     13  C   LIG    1       -2.695  -3.993   0.006  0.00  0.00    +0.124 A 
ENDROOT
BRANCH  10  14
ATOM     14  C   LIG    1       -0.487  -7.056  -0.005  0.00  0.00    +0.165 C 
BRANCH  14  15
ATOM     15  C   LIG    1       -0.071  -7.351   1.413  0.00  0.00    -0.027 A 
ATOM     16  C   LIG    1       -0.594  -8.448   2.072  0.00  0.00    +0.008 A 
ATOM     17  C   LIG    1       -0.209  -8.722   3.371  0.00  0.00    +0.038 A 
ATOM     18  C   LIG    1        0.693  -7.892   4.015  0.00  0.00    +0.123 A 
ATOM     19  F   LIG    1        1.066  -8.156   5.287  0.00  0.00    -0.205 F 
ATOM     20  C   LIG    1        1.212  -6.791   3.356  0.00  0.00    +0.038 A 
ATOM     21  C   LIG    1        0.829  -6.521   2.055  0.00  0.00    +0.008 A 
ENDBRANCH  14  15
ENDBRANCH  10  14
BRANCH   1  22
ATOM     22  O   LIG    1       -1.414  -1.962   0.005  0.00  0.00    -0.491 OA
BRANCH  22  23
ATOM     23  C   LIG    1       -1.433  -0.534   0.013  0.00  0.00    +0.229 C 
BRANCH  23  24
ATOM     24  C   LIG    1        0.002  -0.004   0.002  0.00  0.00    +0.038 C 
ATOM     25  C   LIG    1       -0.019   1.526   0.010  0.00  0.00    +0.007 C 
ENDBRANCH  23  24
ENDBRANCH  22  23
ENDBRANCH   1  22
TORSDOF 5
