REMARK  Name = ZINC000095987658
REMARK                            x       y       z     vdW  Elec       q    Type
REMARK                         _______ _______ _______ _____ _____    ______ ____
ROOT
ATOM      1  O   LIG    1        0.002  -0.004   0.002  0.00  0.00    -0.267 OA
ATOM      2  C   LIG    1       -0.014   1.212   0.009  0.00  0.00    +0.285 C 
ATOM      3  N   LIG    1        1.143   1.902   0.001  0.00  0.00    -0.055 NA
ENDROOT
BRANCH   2   4
ATOM      4  C   LIG    1       -1.300   1.931   0.019  0.00  0.00    +0.044 A 
ATOM      5  C   LIG    1       -1.336   3.397   0.027  0.00  0.00    +0.031 A 
ATOM      6  C   LIG    1       -2.516   4.036   0.031  0.00  0.00    +0.097 A 
ATOM      7  N   LIG    1       -3.698   3.336   0.038  0.00  0.00    -0.265 N 
ATOM      8  C   LIG    1       -4.988   3.732   0.048  0.00  0.00    +0.411 C 
ATOM      9  N   LIG    1       -5.768   2.679   0.052  0.00  0.00    -0.200 N 
ATOM     10  H   LIG    1       -6.738   2.705   0.059  0.00  0.00    +0.454 HD
ATOM     11  C   LIG    1       -5.034   1.569   0.045  0.00  0.00    +0.335 C 
ATOM     12  C   LIG    1       -3.703   1.954   0.036  0.00  0.00    +0.115 A 
ATOM     13  C   LIG    1       -2.498   1.235   0.026  0.00  0.00    +0.045 A 
ENDBRANCH   2   4
BRANCH   3  14
ATOM     14  S   LIG    1        2.589   1.093  -0.017  0.00  0.00    +0.096 S 
ATOM     15  O   LIG    1        2.685   0.416   1.228  0.00  0.00    -0.148 OA
ATOM     16  O   LIG    1        2.661   0.429  -1.271  0.00  0.00    -0.148 OA
BRANCH  14  17
ATOM     17  C   LIG    1        3.865   2.308  -0.022  0.00  0.00    +0.129 A 
ATOM     18  C   LIG    1        4.729   2.408   1.052  0.00  0.00    +0.030 A 
ATOM     19  C   LIG    1        5.731   3.361   1.048  0.00  0.00    +0.002 A 
ATOM     20  C   LIG    1        5.869   4.214  -0.031  0.00  0.00    +0.002 A 
ATOM     21  C   LIG    1        5.006   4.114  -1.106  0.00  0.00    +0.022 A 
ATOM     22  C   LIG    1        4.008   3.157  -1.105  0.00  0.00    +0.068 A 
ATOM     23 CL   LIG    1        2.924   3.032  -2.455  0.00  0.00    -0.082 Cl
ENDBRANCH  14  17
ENDBRANCH   3  14
TORSDOF 3
