REMARK  Name = ZINC000082147424
REMARK                            x       y       z     vdW  Elec       q    Type
REMARK                         _______ _______ _______ _____ _____    ______ ____
ROOT
ATOM      1  C   LIG    1       -2.848  -2.593   0.015  0.00  0.00    +0.162 C 
ATOM      2  C   LIG    1       -2.831  -4.093   0.125  0.00  0.00    +0.236 C 
ATOM      3  O   LIG    1       -2.530  -4.592   1.189  0.00  0.00    -0.274 OA
ATOM      4  N   LIG    1       -3.131  -4.900  -0.894  0.00  0.00    -0.302 N 
ATOM      5  C   LIG    1       -2.984  -6.343  -0.687  0.00  0.00    +0.132 C 
ATOM      6  C   LIG    1       -3.595  -4.447  -2.198  0.00  0.00    +0.126 C 
ATOM      7  C   LIG    1       -3.191  -2.992  -2.442  0.00  0.00    +0.127 C 
ATOM      8  N   LIG    1       -3.523  -2.212  -1.234  0.00  0.00    -0.288 N 
ATOM      9  C   LIG    1       -4.407  -1.196  -1.277  0.00  0.00    +0.217 C 
ATOM     10  O   LIG    1       -4.661  -0.571  -0.269  0.00  0.00    -0.276 OA
ENDROOT
BRANCH   1  11
ATOM     11  C   LIG    1       -1.413  -2.063   0.004  0.00  0.00    +0.032 C 
BRANCH  11  12
ATOM     12  C   LIG    1       -1.433  -0.534   0.013  0.00  0.00    +0.002 C 
BRANCH  12  13
ATOM     13  C   LIG    1        0.002  -0.004   0.002  0.00  0.00    -0.003 C 
ATOM     14  C   LIG    1       -0.019   1.526   0.010  0.00  0.00    +0.004 C 
ENDBRANCH  12  13
ENDBRANCH  11  12
ENDBRANCH   1  11
BRANCH   9  15
ATOM     15  C   LIG    1       -5.079  -0.835  -2.576  0.00  0.00    +0.102 C 
BRANCH  15  16
ATOM     16  C   LIG    1       -6.027   0.344  -2.350  0.00  0.00    +0.066 C 
BRANCH  16  17
ATOM     17  C   LIG    1       -6.699   0.705  -3.650  0.00  0.00    +0.061 A 
ATOM     18  C   LIG    1       -8.033   0.787  -3.851  0.00  0.00    +0.116 A 
ATOM     19  N   LIG    1       -8.223   1.141  -5.159  0.00  0.00    -0.306 N 
ATOM     20  C   LIG    1       -6.981   1.265  -5.725  0.00  0.00    +0.138 A 
ATOM     21  C   LIG    1       -6.867   1.624  -7.083  0.00  0.00    +0.047 A 
ATOM     22  C   LIG    1       -7.994   1.843  -7.812  0.00  0.00    +0.005 A 
ATOM     23  C   LIG    1       -9.253   1.708  -7.203  0.00  0.00    +0.018 A 
ATOM     24  C   LIG    1       -9.347   1.363  -5.902  0.00  0.00    +0.092 A 
ATOM     25  N   LIG    1       -6.077   1.002  -4.793  0.00  0.00    -0.233 NA
ENDBRANCH  16  17
ENDBRANCH  15  16
ENDBRANCH   9  15
TORSDOF 6
