REMARK  Name = ZINC000069618411
REMARK                            x       y       z     vdW  Elec       q    Type
REMARK                         _______ _______ _______ _____ _____    ______ ____
ROOT
ATOM      1  O   LIG    1        0.065   0.027   0.271  0.00  0.00    -0.270 OA
ATOM      2  C   LIG    1       -0.014   1.211   0.009  0.00  0.00    +0.247 C 
ATOM      3  N   LIG    1       -1.201   1.746  -0.341  0.00  0.00    -0.295 N 
ATOM      4  C   LIG    1       -2.430   0.942  -0.286  0.00  0.00    +0.127 C 
ATOM      5  C   LIG    1       -3.104   0.974  -1.658  0.00  0.00    +0.127 C 
ATOM      6  N   LIG    1       -3.192   2.371  -2.107  0.00  0.00    -0.298 N 
ATOM      7  C   LIG    1       -1.962   3.174  -2.167  0.00  0.00    +0.127 C 
ATOM      8  C   LIG    1       -4.378   2.906  -2.457  0.00  0.00    +0.219 C 
ATOM      9  O   LIG    1       -4.438   4.060  -2.826  0.00  0.00    -0.275 OA
ATOM     10  C   LIG    1       -1.289   3.143  -0.789  0.00  0.00    +0.127 C 
ENDROOT
BRANCH   2  11
ATOM     11  C   LIG    1        1.192   2.064   0.068  0.00  0.00    +0.040 A 
ATOM     12  C   LIG    1        1.121   3.340   0.628  0.00  0.00    +0.013 A 
ATOM     13  C   LIG    1        2.250   4.133   0.681  0.00  0.00    +0.004 A 
ATOM     14  C   LIG    1        3.452   3.667   0.182  0.00  0.00    +0.045 A 
ATOM     15  C   LIG    1        3.532   2.398  -0.377  0.00  0.00    +0.118 A 
ATOM     16  C   LIG    1        2.407   1.593  -0.431  0.00  0.00    +0.058 A 
BRANCH  15  17
ATOM     17  O   LIG    1        4.716   1.945  -0.866  0.00  0.00    -0.507 OA
ATOM     18  H   LIG    1        5.257   1.478  -0.215  0.00  0.00    +0.292 HD
ENDBRANCH  15  17
ENDBRANCH   2  11
BRANCH   8  19
ATOM     19  C   LIG    1       -5.630   2.070  -2.390  0.00  0.00    +0.086 C 
ATOM     20  C   LIG    1       -6.666   2.434  -1.325  0.00  0.00    +0.025 C 
ATOM     21  C   LIG    1       -6.946   2.736  -2.799  0.00  0.00    +0.068 C 
BRANCH  21  22
ATOM     22  C   LIG    1       -7.969   1.881  -3.502  0.00  0.00    +0.109 A 
ATOM     23  O   LIG    1       -8.544   0.774  -3.004  0.00  0.00    -0.468 OA
ATOM     24  C   LIG    1       -9.408   0.275  -3.903  0.00  0.00    +0.195 A 
ATOM     25  C   LIG    1       -9.385   1.059  -4.996  0.00  0.00    +0.041 A 
ATOM     26  C   LIG    1       -8.458   2.095  -4.737  0.00  0.00    +0.045 A 
ENDBRANCH  21  22
ENDBRANCH   8  19
TORSDOF 4
