REMARK  Name = ZINC000009617211
REMARK                            x       y       z     vdW  Elec       q    Type
REMARK                         _______ _______ _______ _____ _____    ______ ____
ROOT
ATOM      1  C   LIG    1        0.260   1.491  -0.083  0.00  0.00    +0.044 C 
ATOM      2  C   LIG    1        0.243  -0.016  -0.081  0.00  0.00    -0.046 C 
ATOM      3  C   LIG    1       -0.942  -0.688  -0.056  0.00  0.00    +0.050 C 
ATOM      4  C   LIG    1       -0.939  -2.096  -0.056  0.00  0.00    +0.141 C 
ATOM      5  N   LIG    1       -2.096  -2.752  -0.031  0.00  0.00    -0.232 NA
ATOM      6  C   LIG    1       -2.139  -4.076  -0.029  0.00  0.00    +0.067 C 
ATOM      7  C   LIG    1       -3.468  -4.787  -0.002  0.00  0.00    +0.068 C 
ATOM      8  C   LIG    1       -0.963  -4.808  -0.053  0.00  0.00    +0.121 C 
ATOM      9  C   LIG    1        0.262  -4.119  -0.079  0.00  0.00    +0.280 C 
ATOM     10  O   LIG    1        1.318  -4.732  -0.101  0.00  0.00    -0.265 OA
ATOM     11  N   LIG    1        0.252  -2.769  -0.080  0.00  0.00    -0.267 N 
ATOM     12  C   LIG    1        1.431  -2.086  -0.105  0.00  0.00    +0.096 C 
ATOM     13  C   LIG    1        1.447  -0.735  -0.112  0.00  0.00    +0.021 C 
ENDROOT
BRANCH   8  14
ATOM     14  N   LIG    1       -0.994  -6.211  -0.052  0.00  0.00    -0.276 N 
ATOM     15  H   LIG    1       -1.414  -6.686   0.681  0.00  0.00    +0.155 HD
ATOM     16  C   LIG    1       -0.439  -6.898  -1.071  0.00  0.00    +0.251 C 
ATOM     17  O   LIG    1        0.163  -6.307  -1.946  0.00  0.00    -0.270 OA
BRANCH  16  18
ATOM     18  C   LIG    1       -0.562  -8.370  -1.123  0.00  0.00    +0.067 A 
ATOM     19  C   LIG    1       -0.142  -9.147  -0.043  0.00  0.00    +0.015 A 
ATOM     20  C   LIG    1       -0.260 -10.521  -0.098  0.00  0.00    +0.001 A 
ATOM     21  C   LIG    1       -0.795 -11.128  -1.220  0.00  0.00    +0.002 A 
ATOM     22  C   LIG    1       -1.214 -10.363  -2.295  0.00  0.00    +0.033 A 
ATOM     23  C   LIG    1       -1.106  -8.988  -2.250  0.00  0.00    +0.138 A 
BRANCH  23  24
ATOM     24  N   LIG    1       -1.555  -8.172  -3.400  0.00  0.00    +0.057 N 
ATOM     25  O   LIG    1       -1.571  -6.957  -3.315  0.00  0.00    -0.126 OA
ATOM     26  O   LIG    1       -1.908  -8.714  -4.432  0.00  0.00    -0.126 OA
ENDBRANCH  23  24
ENDBRANCH  16  18
ENDBRANCH   8  14
TORSDOF 3
