REMARK  Name = ZINC000058192552
REMARK                            x       y       z     vdW  Elec       q    Type
REMARK                         _______ _______ _______ _____ _____    ______ ____
ROOT
ATOM      1  C   LIG    1       -2.790  -4.050   0.392  0.00  0.00    +0.071 C 
ATOM      2  N   LIG    1       -2.256  -4.248   1.752  0.00  0.00    -0.290 NA
ATOM      3  C   LIG    1       -3.344  -4.779   2.608  0.00  0.00    +0.085 C 
ATOM      4  C   LIG    1       -4.324  -5.464   1.623  0.00  0.00    +0.017 C 
ATOM      5  C   LIG    1       -4.264  -4.505   0.404  0.00  0.00    +0.021 C 
ENDROOT
BRANCH   2   6
ATOM      6  C   LIG    1       -1.724  -2.991   2.297  0.00  0.00    +0.181 C 
BRANCH   6   7
ATOM      7  C   LIG    1       -1.054  -3.261   3.619  0.00  0.00    +0.231 C 
ATOM      8  N   LIG    1       -0.407  -2.269   4.262  0.00  0.00    -0.284 N 
ATOM      9  H   LIG    1       -0.441  -1.363   3.915  0.00  0.00    +0.155 HD
ATOM     10  O   LIG    1       -1.097  -4.372   4.106  0.00  0.00    -0.274 OA
BRANCH   8  11
ATOM     11  C   LIG    1        0.315  -2.545   5.428  0.00  0.00    +0.036 A 
ATOM     12  C   LIG    1        0.366  -1.608   6.453  0.00  0.00    +0.023 A 
ATOM     13  C   LIG    1        1.079  -1.882   7.604  0.00  0.00    +0.005 A 
ATOM     14  C   LIG    1        1.742  -3.087   7.738  0.00  0.00    +0.038 A 
ATOM     15  C   LIG    1        1.695  -4.024   6.718  0.00  0.00    +0.125 A 
ATOM     16  F   LIG    1        2.345  -5.200   6.852  0.00  0.00    -0.205 F 
ATOM     17  C   LIG    1        0.977  -3.757   5.566  0.00  0.00    +0.061 A 
ENDBRANCH   8  11
ENDBRANCH   6   7
ENDBRANCH   2   6
BRANCH   1  18
ATOM     18  C   LIG    1       -2.705  -2.571   0.010  0.00  0.00    +0.103 C 
BRANCH  18  19
ATOM     19  N   LIG    1       -3.220  -2.387  -1.354  0.00  0.00    -0.296 NA
ATOM     20  C   LIG    1       -3.062  -0.993  -1.793  0.00  0.00    +0.115 C 
ATOM     21  C   LIG    1       -3.664  -0.833  -3.192  0.00  0.00    +0.130 C 
ATOM     22  C   LIG    1       -3.432   0.596  -3.688  0.00  0.00    +0.039 C 
ATOM     23  O   LIG    1       -3.035  -1.757  -4.085  0.00  0.00    -0.371 OA
ATOM     24  C   LIG    1       -3.168  -3.124  -3.687  0.00  0.00    +0.130 C 
ATOM     25  C   LIG    1       -2.434  -4.021  -4.685  0.00  0.00    +0.039 C 
ATOM     26  C   LIG    1       -2.562  -3.307  -2.293  0.00  0.00    +0.115 C 
ENDBRANCH  18  19
ENDBRANCH   1  18
TORSDOF 5
