REMARK  Name = ZINC000069602010
REMARK                            x       y       z     vdW  Elec       q    Type
REMARK                         _______ _______ _______ _____ _____    ______ ____
ROOT
ATOM      1  N   LIG    1        0.092  -2.777  -0.116  0.00  0.00    -0.327 N 
ATOM      2  C   LIG    1        0.785  -3.254   1.094  0.00  0.00    +0.110 C 
ATOM      3  C   LIG    1       -0.005  -4.508   1.539  0.00  0.00    +0.025 C 
ATOM      4  C   LIG    1       -1.462  -4.097   1.201  0.00  0.00    +0.025 C 
ATOM      5  C   LIG    1       -1.296  -3.261  -0.086  0.00  0.00    +0.105 C 
ENDROOT
BRANCH   1   6
ATOM      6  C   LIG    1        0.662  -1.998  -1.129  0.00  0.00    +0.072 A 
ATOM      7  C   LIG    1        0.606  -0.608  -1.057  0.00  0.00    +0.141 A 
ATOM      8  C   LIG    1        1.173   0.158  -2.062  0.00  0.00    +0.047 A 
ATOM      9  C   LIG    1        1.787  -0.457  -3.137  0.00  0.00    +0.004 A 
ATOM     10  C   LIG    1        1.838  -1.836  -3.213  0.00  0.00    +0.002 A 
ATOM     11  C   LIG    1        1.275  -2.608  -2.214  0.00  0.00    +0.027 A 
BRANCH   7  12
ATOM     12  O   LIG    1        0.002  -0.004   0.002  0.00  0.00    -0.493 OA
ATOM     13  C   LIG    1       -0.017   1.425   0.010  0.00  0.00    +0.277 C 
ENDBRANCH   7  12
ENDBRANCH   1   6
BRANCH   3  14
ATOM     14  C   LIG    1        0.160  -4.761   3.039  0.00  0.00    +0.109 C 
BRANCH  14  15
ATOM     15  N   LIG    1       -0.623  -5.937   3.424  0.00  0.00    -0.313 N 
ATOM     16  C   LIG    1       -0.629  -6.351   4.707  0.00  0.00    +0.236 C 
ATOM     17  O   LIG    1        0.013  -5.750   5.542  0.00  0.00    -0.274 OA
ATOM     18  H   LIG    1       -1.137  -6.418   2.757  0.00  0.00    +0.149 HD
BRANCH  16  19
ATOM     19  C   LIG    1       -1.435  -7.562   5.104  0.00  0.00    +0.170 C 
ATOM     20  C   LIG    1       -0.940  -8.782   4.324  0.00  0.00    +0.041 C 
BRANCH  19  21
ATOM     21  N   LIG    1       -1.277  -7.804   6.540  0.00  0.00    -0.325 N 
ATOM     22  C   LIG    1       -2.276  -7.822   7.475  0.00  0.00    +0.107 A 
ATOM     23  C   LIG    1       -1.695  -8.080   8.662  0.00  0.00    +0.130 A 
ATOM     24  N   LIG    1       -0.376  -8.216   8.457  0.00  0.00    -0.244 NA
ATOM     25  C   LIG    1       -0.119  -8.057   7.188  0.00  0.00    +0.199 A 
ENDBRANCH  19  21
ENDBRANCH  16  19
ENDBRANCH  14  15
ENDBRANCH   3  14
TORSDOF 6
