REMARK  Name = ZINC000069617631
REMARK                            x       y       z     vdW  Elec       q    Type
REMARK                         _______ _______ _______ _____ _____    ______ ____
ROOT
ATOM      1  C   LIG    1       -1.580  -1.639  -0.686  0.00  0.00    +0.126 A 
ATOM      2  C   LIG    1       -2.877  -2.119  -0.806  0.00  0.00    +0.014 A 
ATOM      3  C   LIG    1       -3.120  -3.276  -1.520  0.00  0.00    +0.041 A 
ATOM      4  C   LIG    1       -2.072  -3.961  -2.107  0.00  0.00    +0.127 A 
ATOM      5  C   LIG    1       -0.779  -3.488  -1.985  0.00  0.00    +0.036 A 
ATOM      6  C   LIG    1       -0.531  -2.328  -1.276  0.00  0.00    +0.048 A 
ENDROOT
BRANCH   4   7
ATOM      7  N   LIG    1       -2.335  -5.203  -2.868  0.00  0.00    +0.056 N 
ATOM      8  O   LIG    1       -3.474  -5.621  -2.976  0.00  0.00    -0.126 OA
ATOM      9  O   LIG    1       -1.413  -5.808  -3.385  0.00  0.00    -0.126 OA
ENDBRANCH   4   7
BRANCH   1  10
ATOM     10  O   LIG    1       -1.339  -0.499   0.012  0.00  0.00    -0.489 OA
BRANCH  10  11
ATOM     11  C   LIG    1        0.002  -0.005   0.004  0.00  0.00    +0.167 C 
ATOM     12  C   LIG    1        0.812  -0.710   1.094  0.00  0.00    +0.051 C 
ATOM     13  C   LIG    1       -0.007   1.502   0.271  0.00  0.00    +0.051 C 
ENDBRANCH  10  11
ENDBRANCH   1  10
BRANCH   2  14
ATOM     14  C   LIG    1       -4.019  -1.373  -0.166  0.00  0.00    +0.157 C 
BRANCH  14  15
ATOM     15  N   LIG    1       -4.392  -0.235  -1.009  0.00  0.00    -0.220 N 
ATOM     16  C   LIG    1       -3.858   0.989  -0.902  0.00  0.00    +0.310 C 
ATOM     17  O   LIG    1       -3.003   1.284  -0.090  0.00  0.00    -0.252 OA
ATOM     18  N   LIG    1       -4.374   1.856  -1.797  0.00  0.00    -0.285 N 
ATOM     19  H   LIG    1       -4.140   2.791  -1.904  0.00  0.00    +0.151 HD
ATOM     20  C   LIG    1       -5.359   1.101  -2.572  0.00  0.00    +0.113 C 
ATOM     21  C   LIG    1       -6.744   1.733  -2.698  0.00  0.00    +0.035 C 
ATOM     22  C   LIG    1       -6.246   2.352  -4.017  0.00  0.00    +0.005 C 
ATOM     23  C   LIG    1       -5.233   1.195  -4.092  0.00  0.00    +0.035 C 
ATOM     24  C   LIG    1       -5.314  -0.290  -1.995  0.00  0.00    +0.247 C 
ATOM     25  O   LIG    1       -5.970  -1.251  -2.338  0.00  0.00    -0.273 OA
ENDBRANCH  14  15
ENDBRANCH   2  14
TORSDOF 5
