REMARK  Name = ZINC000012971904
REMARK                            x       y       z     vdW  Elec       q    Type
REMARK                         _______ _______ _______ _____ _____    ______ ____
ROOT
ATOM      1  C   LIG    1       -0.019  -6.320   3.596  0.00  0.00    +0.151 C 
ENDROOT
BRANCH   1   2
ATOM      2  N   LIG    1       -0.125  -6.881   4.945  0.00  0.00    -0.239 N 
ATOM      3  C   LIG    1        0.945  -7.234   5.670  0.00  0.00    +0.223 C 
ATOM      4  C   LIG    1        0.484  -7.773   7.008  0.00  0.00    +0.112 C 
ATOM      5  C   LIG    1       -1.048  -7.667   6.925  0.00  0.00    +0.056 C 
ATOM      6  C   LIG    1       -1.573  -6.736   8.012  0.00  0.00    +0.016 C 
ATOM      7  C   LIG    1       -3.096  -6.623   7.898  0.00  0.00    +0.001 C 
ATOM      8  C   LIG    1       -3.721  -8.012   8.044  0.00  0.00    +0.000 C 
ATOM      9  C   LIG    1       -3.202  -8.927   6.933  0.00  0.00    +0.001 C 
ATOM     10  C   LIG    1       -1.680  -9.049   7.044  0.00  0.00    +0.016 C 
ATOM     11  O   LIG    1        2.099  -7.137   5.311  0.00  0.00    -0.275 OA
ATOM     12  C   LIG    1       -1.300  -7.078   5.559  0.00  0.00    +0.228 C 
ATOM     13  O   LIG    1       -2.390  -6.830   5.090  0.00  0.00    -0.275 OA
ENDBRANCH   1   2
BRANCH   1  14
ATOM     14  C   LIG    1        0.086  -4.796   3.684  0.00  0.00    +0.170 C 
BRANCH  14  15
ATOM     15  O   LIG    1        1.305  -4.440   4.338  0.00  0.00    -0.387 OA
ATOM     16  H   LIG    1        2.100  -4.755   3.887  0.00  0.00    +0.210 HD
ENDBRANCH  14  15
BRANCH  14  17
ATOM     17  C   LIG    1        0.071  -4.202   2.274  0.00  0.00    +0.261 C 
BRANCH  17  18
ATOM     18  O   LIG    1        0.051  -2.775   2.359  0.00  0.00    -0.489 OA
BRANCH  18  19
ATOM     19  C   LIG    1        0.036  -2.088   1.187  0.00  0.00    +0.121 A 
ATOM     20  C   LIG    1        0.023  -0.701   1.195  0.00  0.00    +0.049 A 
ATOM     21  C   LIG    1        0.002  -0.004   0.002  0.00  0.00    -0.047 A 
ATOM     22  C   LIG    1       -0.018   1.503   0.010  0.00  0.00    +0.044 C 
ATOM     23  C   LIG    1        0.006  -0.688  -1.199  0.00  0.00    +0.003 A 
ATOM     24  C   LIG    1        0.024  -2.071  -1.210  0.00  0.00    +0.004 A 
ATOM     25  C   LIG    1        0.040  -2.772  -0.020  0.00  0.00    +0.045 A 
ENDBRANCH  18  19
ENDBRANCH  17  18
ENDBRANCH  14  17
ENDBRANCH   1  14
TORSDOF 6
