REMARK  Name = ZINC000042367745
REMARK                            x       y       z     vdW  Elec       q    Type
REMARK                         _______ _______ _______ _____ _____    ______ ____
ROOT
ATOM      1  C   LIG    1       -0.018   1.503   0.010  0.00  0.00    +0.109 C 
ATOM      2  C   LIG    1        0.002  -0.004   0.002  0.00  0.00    +0.217 C 
ATOM      3  O   LIG    1        0.020  -0.616   1.049  0.00  0.00    -0.276 OA
ATOM      4  N   LIG    1        0.000  -0.672  -1.169  0.00  0.00    -0.270 N 
ATOM      5  C   LIG    1        0.020  -2.139  -1.179  0.00  0.00    +0.120 C 
ATOM      6  C   LIG    1       -0.969  -2.632  -2.212  0.00  0.00    -0.019 A 
ATOM      7  C   LIG    1       -1.565  -3.866  -2.081  0.00  0.00    +0.006 A 
ATOM      8  C   LIG    1       -2.435  -4.320  -3.058  0.00  0.00    +0.000 A 
ATOM      9  C   LIG    1       -2.711  -3.539  -4.167  0.00  0.00    +0.001 A 
ATOM     10  C   LIG    1       -2.127  -2.296  -4.305  0.00  0.00    +0.008 A 
ATOM     11  C   LIG    1       -1.254  -1.832  -3.321  0.00  0.00    -0.019 A 
ATOM     12  C   LIG    1       -0.629  -0.500  -3.435  0.00  0.00    +0.023 C 
ATOM     13  C   LIG    1       -0.015   0.027  -2.369  0.00  0.00    +0.079 C 
ENDROOT
BRANCH   5  14
ATOM     14  C   LIG    1        1.422  -2.637  -1.534  0.00  0.00    +0.123 C 
BRANCH  14  15
ATOM     15  C   LIG    1        2.385  -2.249  -0.442  0.00  0.00    +0.215 C 
ATOM     16  O   LIG    1        1.988  -1.635   0.526  0.00  0.00    -0.276 OA
ATOM     17  N   LIG    1        3.686  -2.586  -0.539  0.00  0.00    -0.311 N 
ATOM     18  H   LIG    1        4.003  -3.077  -1.313  0.00  0.00    +0.149 HD
BRANCH  17  19
ATOM     19  C   LIG    1        4.622  -2.208   0.523  0.00  0.00    +0.091 C 
ATOM     20  C   LIG    1        5.123  -0.783   0.280  0.00  0.00    +0.029 C 
BRANCH  19  21
ATOM     21  C   LIG    1        5.809  -3.174   0.523  0.00  0.00    +0.165 C 
BRANCH  21  22
ATOM     22  N   LIG    1        5.346  -4.518   0.874  0.00  0.00    -0.270 N 
ATOM     23  N   LIG    1        4.627  -4.868   2.024  0.00  0.00    -0.180 NA
ATOM     24  C   LIG    1        4.391  -6.154   1.984  0.00  0.00    +0.134 A 
ATOM     25  C   LIG    1        4.960  -6.666   0.813  0.00  0.00    +0.041 A 
ATOM     26  C   LIG    1        5.541  -5.640   0.149  0.00  0.00    +0.108 A 
ENDBRANCH  21  22
ENDBRANCH  19  21
ENDBRANCH  17  19
ENDBRANCH  14  15
ENDBRANCH   5  14
TORSDOF 5
