REMARK  Name = ZINC000058191543
REMARK                            x       y       z     vdW  Elec       q    Type
REMARK                         _______ _______ _______ _____ _____    ______ ____
ROOT
ATOM      1  N   LIG    1        3.736  -5.805  -3.727  0.00  0.00    -0.251 N 
ATOM      2  C   LIG    1        3.873  -6.383  -2.473  0.00  0.00    +0.186 A 
ATOM      3  N   LIG    1        5.130  -6.678  -2.327  0.00  0.00    -0.054 NA
ATOM      4  O   LIG    1        5.777  -6.358  -3.299  0.00  0.00    -0.295 OA
ATOM      5  C   LIG    1        4.992  -5.801  -4.234  0.00  0.00    +0.443 A 
ATOM      6  O   LIG    1        5.340  -5.377  -5.320  0.00  0.00    -0.221 OA
ENDROOT
BRANCH   2   7
ATOM      7  C   LIG    1        2.791  -6.627  -1.492  0.00  0.00    +0.021 A 
ATOM      8  C   LIG    1        3.046  -6.515  -0.126  0.00  0.00    +0.011 A 
ATOM      9  C   LIG    1        2.032  -6.737   0.783  0.00  0.00    +0.001 A 
ATOM     10  C   LIG    1        0.767  -7.083   0.342  0.00  0.00    +0.000 A 
ATOM     11  C   LIG    1        0.509  -7.201  -1.012  0.00  0.00    +0.001 A 
ATOM     12  C   LIG    1        1.514  -6.975  -1.931  0.00  0.00    +0.011 A 
ENDBRANCH   2   7
BRANCH   1  13
ATOM     13  C   LIG    1        2.511  -5.306  -4.358  0.00  0.00    +0.186 C 
BRANCH  13  14
ATOM     14  C   LIG    1        2.249  -3.894  -3.900  0.00  0.00    +0.069 A 
ATOM     15  N   LIG    1        1.616  -3.631  -2.788  0.00  0.00    -0.236 NA
ATOM     16  C   LIG    1        1.455  -2.365  -2.508  0.00  0.00    +0.186 A 
ATOM     17  S   LIG    1        2.178  -1.401  -3.792  0.00  0.00    -0.069 S 
ATOM     18  C   LIG    1        2.652  -2.827  -4.609  0.00  0.00    +0.072 A 
BRANCH  16  19
ATOM     19  C   LIG    1        0.776  -1.832  -1.317  0.00  0.00    +0.365 C 
ATOM     20  O   LIG    1        0.311  -2.593  -0.491  0.00  0.00    -0.243 OA
BRANCH  19  21
ATOM     21  O   LIG    1        0.668  -0.500  -1.143  0.00  0.00    -0.460 OA
BRANCH  21  22
ATOM     22  C   LIG    1       -0.015  -0.045   0.055  0.00  0.00    +0.229 C 
ATOM     23  C   LIG    1       -0.038   1.484   0.080  0.00  0.00    +0.048 C 
ENDBRANCH  21  22
ENDBRANCH  19  21
ENDBRANCH  16  19
ENDBRANCH  13  14
ENDBRANCH   1  13
TORSDOF 6
