REMARK  Name = ZINC000005577570
REMARK                            x       y       z     vdW  Elec       q    Type
REMARK                         _______ _______ _______ _____ _____    ______ ____
ROOT
ATOM      1  N   LIG    1        2.421   0.277   4.131  0.00  0.00    -0.282 N 
ATOM      2  H   LIG    1        3.147  -0.090   4.659  0.00  0.00    +0.155 HD
ATOM      3  C   LIG    1        1.968   1.522   4.380  0.00  0.00    +0.261 C 
ATOM      4  O   LIG    1        0.999   1.945   3.786  0.00  0.00    -0.271 OA
ENDROOT
BRANCH   3   5
ATOM      5  C   LIG    1        2.665   2.387   5.398  0.00  0.00    +0.296 C 
ATOM      6  O   LIG    1        1.946   3.614   5.562  0.00  0.00    -0.473 OA
ATOM      7  C   LIG    1        2.592   4.620   6.213  0.00  0.00    +0.163 A 
ATOM      8  C   LIG    1        1.861   5.685   6.716  0.00  0.00    +0.049 A 
ATOM      9  C   LIG    1        2.504   6.718   7.373  0.00  0.00    +0.004 A 
ATOM     10  C   LIG    1        3.877   6.691   7.529  0.00  0.00    +0.004 A 
ATOM     11  C   LIG    1        4.612   5.631   7.032  0.00  0.00    +0.049 A 
ATOM     12  C   LIG    1        3.973   4.592   6.373  0.00  0.00    +0.162 A 
ATOM     13  O   LIG    1        4.709   3.553   5.892  0.00  0.00    -0.484 OA
ATOM     14  C   LIG    1        4.081   2.721   4.910  0.00  0.00    +0.283 C 
ENDBRANCH   3   5
BRANCH   1  15
ATOM     15  C   LIG    1        1.843  -0.487   3.108  0.00  0.00    +0.041 A 
ATOM     16  C   LIG    1        1.749  -1.865   3.241  0.00  0.00    +0.073 A 
ATOM     17  C   LIG    1        1.177  -2.622   2.230  0.00  0.00    +0.167 A 
ATOM     18  C   LIG    1        0.694  -1.999   1.085  0.00  0.00    +0.204 A 
ATOM     19  C   LIG    1        0.794  -0.620   0.951  0.00  0.00    +0.167 A 
ATOM     20  C   LIG    1        1.365   0.135   1.963  0.00  0.00    +0.073 A 
BRANCH  17  21
ATOM     21  O   LIG    1        1.085  -3.972   2.360  0.00  0.00    -0.491 OA
ATOM     22  C   LIG    1        1.597  -4.544   3.566  0.00  0.00    +0.277 C 
ENDBRANCH  17  21
BRANCH  19  23
ATOM     23  O   LIG    1        0.326  -0.010  -0.171  0.00  0.00    -0.491 OA
ATOM     24  C   LIG    1        0.462   1.411  -0.242  0.00  0.00    +0.277 C 
ENDBRANCH  19  23
BRANCH  18  25
ATOM     25  O   LIG    1        0.132  -2.741   0.092  0.00  0.00    -0.488 OA
ATOM     26  C   LIG    1       -1.277  -2.969   0.169  0.00  0.00    +0.277 C 
ENDBRANCH  18  25
ENDBRANCH   1  15
TORSDOF 5
