REMARK  Name = ZINC000095987621
REMARK                            x       y       z     vdW  Elec       q    Type
REMARK                         _______ _______ _______ _____ _____    ______ ____
ROOT
ATOM      1  C   LIG    1        0.463   1.069   5.881  0.00  0.00    +0.110 C 
ATOM      2  C   LIG    1        1.598   1.030   6.929  0.00  0.00    +0.053 C 
ATOM      3  C   LIG    1        0.909   1.456   8.245  0.00  0.00    +0.162 C 
ATOM      4  O   LIG    1       -0.241   2.223   7.827  0.00  0.00    -0.370 OA
ATOM      5  C   LIG    1       -0.779   1.517   6.685  0.00  0.00    +0.169 C 
ENDROOT
BRANCH   5   6
ATOM      6  C   LIG    1       -1.643   2.435   5.860  0.00  0.00    -0.014 A 
ATOM      7  C   LIG    1       -1.270   3.752   5.673  0.00  0.00    +0.009 A 
ATOM      8  C   LIG    1       -2.061   4.596   4.917  0.00  0.00    +0.041 A 
ATOM      9  C   LIG    1       -3.229   4.122   4.346  0.00  0.00    +0.158 A 
ATOM     10  C   LIG    1       -3.604   2.800   4.533  0.00  0.00    +0.159 A 
ATOM     11  F   LIG    1       -4.744   2.335   3.977  0.00  0.00    -0.202 F 
ATOM     12  F   LIG    1       -4.003   4.947   3.606  0.00  0.00    -0.202 F 
ATOM     13  C   LIG    1       -2.807   1.957   5.287  0.00  0.00    +0.047 A 
ENDBRANCH   5   6
BRANCH   1  14
ATOM     14  N   LIG    1        0.249  -0.261   5.305  0.00  0.00    -0.294 N 
ATOM     15  H   LIG    1       -0.401  -0.862   5.701  0.00  0.00    +0.151 HD
ATOM     16  C   LIG    1        0.955  -0.648   4.225  0.00  0.00    +0.302 C 
ATOM     17  O   LIG    1        1.770   0.106   3.728  0.00  0.00    -0.253 OA
ATOM     18  N   LIG    1        0.759  -1.872   3.695  0.00  0.00    -0.287 N 
ATOM     19  C   LIG    1       -0.222  -2.780   4.293  0.00  0.00    +0.133 C 
BRANCH  18  20
ATOM     20  C   LIG    1        1.526  -2.293   2.520  0.00  0.00    +0.137 C 
BRANCH  20  21
ATOM     21  C   LIG    1        0.770  -1.902   1.249  0.00  0.00    +0.178 C 
BRANCH  21  22
ATOM     22  O   LIG    1        0.693  -0.477   1.160  0.00  0.00    -0.378 OA
BRANCH  22  23
ATOM     23  C   LIG    1        0.002  -0.004   0.002  0.00  0.00    +0.156 C 
ATOM     24  C   LIG    1       -0.019   1.526   0.010  0.00  0.00    +0.034 C 
ENDBRANCH  22  23
ENDBRANCH  21  22
ENDBRANCH  20  21
ENDBRANCH  18  20
ENDBRANCH   1  14
TORSDOF 6
