REMARK  Name = ZINC000069599779
REMARK                            x       y       z     vdW  Elec       q    Type
REMARK                         _______ _______ _______ _____ _____    ______ ____
ROOT
ATOM      1  N   LIG    1        2.707   0.460   4.181  0.00  0.00    -0.291 NA
ATOM      2  C   LIG    1        3.589   1.442   4.825  0.00  0.00    +0.104 C 
ATOM      3  C   LIG    1        3.433   1.343   6.346  0.00  0.00    +0.123 C 
ATOM      4  N   LIG    1        3.658  -0.053   6.750  0.00  0.00    -0.295 N 
ATOM      5  C   LIG    1        4.528  -0.358   7.733  0.00  0.00    +0.253 C 
ATOM      6  O   LIG    1        5.086   0.531   8.349  0.00  0.00    -0.269 OA
ATOM      7  C   LIG    1        2.908  -1.109   6.051  0.00  0.00    +0.123 C 
ATOM      8  C   LIG    1        3.085  -0.913   4.542  0.00  0.00    +0.104 C 
ENDROOT
BRANCH   5   9
ATOM      9  C   LIG    1        4.802  -1.760   8.061  0.00  0.00    +0.074 A 
ATOM     10  C   LIG    1        6.041  -2.299   8.266  0.00  0.00    +0.021 A 
ATOM     11  C   LIG    1        6.008  -3.642   8.559  0.00  0.00    +0.008 A 
ATOM     12  C   LIG    1        4.787  -4.186   8.593  0.00  0.00    +0.046 A 
ATOM     13  S   LIG    1        3.589  -3.017   8.259  0.00  0.00    -0.092 S 
ENDBRANCH   5   9
BRANCH   1  14
ATOM     14  C   LIG    1        2.697   0.637   2.723  0.00  0.00    +0.180 C 
BRANCH  14  15
ATOM     15  C   LIG    1        4.099   0.498   2.190  0.00  0.00    +0.227 C 
ATOM     16  O   LIG    1        5.000   0.167   2.933  0.00  0.00    -0.274 OA
ATOM     17  N   LIG    1        4.354   0.741   0.889  0.00  0.00    -0.311 N 
ATOM     18  H   LIG    1        3.634   1.006   0.296  0.00  0.00    +0.149 HD
BRANCH  17  19
ATOM     19  C   LIG    1        5.717   0.606   0.372  0.00  0.00    +0.076 C 
ATOM     20  C   LIG    1        5.978  -0.855  -0.002  0.00  0.00    +0.022 C 
ATOM     21  C   LIG    1        7.403  -0.997  -0.542  0.00  0.00    +0.002 C 
ATOM     22  C   LIG    1        7.567  -0.116  -1.783  0.00  0.00    +0.000 C 
ATOM     23  C   LIG    1        7.306   1.345  -1.409  0.00  0.00    +0.005 C 
ATOM     24  C   LIG    1        5.882   1.486  -0.869  0.00  0.00    +0.006 C 
ATOM     25  C   LIG    1        5.621   2.947  -0.495  0.00  0.00    +0.009 C 
ENDBRANCH  17  19
ENDBRANCH  14  15
ENDBRANCH   1  14
TORSDOF 4
