REMARK  Name = ZINC000058192773
REMARK                            x       y       z     vdW  Elec       q    Type
REMARK                         _______ _______ _______ _____ _____    ______ ____
ROOT
ATOM      1  C   LIG    1        0.731  -1.815  -1.168  0.00  0.00    +0.218 C 
ATOM      2  O   LIG    1        0.101  -2.315  -0.260  0.00  0.00    -0.275 OA
ATOM      3  N   LIG    1        1.419  -2.598  -2.022  0.00  0.00    -0.299 N 
ATOM      4  C   LIG    1        1.323  -4.062  -1.937  0.00  0.00    +0.125 C 
ATOM      5  C   LIG    1        2.731  -4.642  -1.790  0.00  0.00    +0.128 C 
ATOM      6  N   LIG    1        3.595  -4.047  -2.820  0.00  0.00    -0.174 NA
ATOM      7  C   LIG    1        3.694  -2.583  -2.902  0.00  0.00    +0.128 C 
ATOM      8  C   LIG    1        2.283  -2.004  -3.052  0.00  0.00    +0.125 C 
ENDROOT
BRANCH   6   9
ATOM      9  S   LIG    1        4.441  -5.010  -3.868  0.00  0.00    +0.062 S 
ATOM     10  O   LIG    1        3.751  -6.251  -3.920  0.00  0.00    -0.153 OA
ATOM     11  O   LIG    1        4.703  -4.217  -5.018  0.00  0.00    -0.153 OA
BRANCH   9  12
ATOM     12  C   LIG    1        6.005  -5.341  -3.126  0.00  0.00    +0.116 A 
ATOM     13  C   LIG    1        6.390  -6.613  -2.739  0.00  0.00    +0.039 A 
ATOM     14  C   LIG    1        7.607  -6.691  -2.198  0.00  0.00    -0.011 A 
ATOM     15  C   LIG    1        8.258  -7.956  -1.701  0.00  0.00    +0.051 C 
ATOM     16  S   LIG    1        8.332  -5.089  -2.145  0.00  0.00    -0.097 S 
ATOM     17  C   LIG    1        6.904  -4.385  -2.890  0.00  0.00    +0.013 A 
ATOM     18  C   LIG    1        6.723  -2.924  -3.211  0.00  0.00    +0.053 C 
ENDBRANCH   9  12
ENDBRANCH   6   9
BRANCH   1  19
ATOM     19  C   LIG    1        0.743  -0.318  -1.342  0.00  0.00    +0.072 C 
ATOM     20  C   LIG    1       -0.523   0.278  -0.724  0.00  0.00    +0.017 C 
BRANCH  19  21
ATOM     21  C   LIG    1        1.974   0.266  -0.645  0.00  0.00    +0.009 C 
ATOM     22  C   LIG    1        2.055   1.767  -0.926  0.00  0.00    +0.004 C 
ENDBRANCH  19  21
ENDBRANCH   1  19
TORSDOF 4
