REMARK  Name = ZINC000001054969
REMARK                            x       y       z     vdW  Elec       q    Type
REMARK                         _______ _______ _______ _____ _____    ______ ____
ROOT
ATOM      1  C   LIG    1       -1.294   1.917  -0.091  0.00  0.00    +0.095 A 
ATOM      2  S   LIG    1       -1.475   3.657   0.056  0.00  0.00    -0.082 S 
ATOM      3  C   LIG    1       -3.228   3.533  -0.029  0.00  0.00    +0.024 A 
ATOM      4  C   LIG    1       -4.213   4.525   0.016  0.00  0.00    +0.048 A 
ATOM      5  C   LIG    1       -5.542   4.184  -0.066  0.00  0.00    +0.127 A 
ATOM      6  C   LIG    1       -5.914   2.852  -0.191  0.00  0.00    +0.033 A 
ATOM      7  C   LIG    1       -4.975   1.870  -0.236  0.00  0.00    +0.013 A 
ATOM      8  C   LIG    1       -3.598   2.189  -0.156  0.00  0.00    +0.008 A 
ATOM      9  C   LIG    1       -2.490   1.325  -0.186  0.00  0.00    +0.068 A 
ATOM     10 CL   LIG    1       -2.661  -0.396  -0.336  0.00  0.00    -0.082 Cl
ENDROOT
BRANCH   1  11
ATOM     11  C   LIG    1       -0.008   1.209  -0.101  0.00  0.00    +0.266 C 
ATOM     12  N   LIG    1        1.143   1.902   0.001  0.00  0.00    -0.244 N 
ATOM     13  H   LIG    1        1.127   2.872   0.012  0.00  0.00    +0.170 HD
ATOM     14  O   LIG    1        0.018  -0.002  -0.206  0.00  0.00    -0.268 OA
BRANCH  12  15
ATOM     15  N   LIG    1        2.334   1.239   0.089  0.00  0.00    -0.222 NA
ATOM     16  C   LIG    1        2.936   1.411   1.420  0.00  0.00    +0.133 C 
ATOM     17  C   LIG    1        4.236   0.605   1.494  0.00  0.00    +0.177 C 
ATOM     18  O   LIG    1        5.112   1.024   0.445  0.00  0.00    -0.377 OA
ATOM     19  C   LIG    1        4.558   0.869  -0.865  0.00  0.00    +0.177 C 
ATOM     20  C   LIG    1        3.262   1.678  -0.963  0.00  0.00    +0.133 C 
ENDBRANCH  12  15
ENDBRANCH   1  11
BRANCH   5  21
ATOM     21  N   LIG    1       -6.579   5.239  -0.018  0.00  0.00    +0.056 N 
ATOM     22  O   LIG    1       -6.254   6.408   0.092  0.00  0.00    -0.126 OA
ATOM     23  O   LIG    1       -7.757   4.938  -0.089  0.00  0.00    -0.126 OA
ENDBRANCH   5  21
TORSDOF 3
