REMARK  Name = ZINC000069618485
REMARK                            x       y       z     vdW  Elec       q    Type
REMARK                         _______ _______ _______ _____ _____    ______ ____
ROOT
ATOM      1  C   LIG    1        2.035  -4.790   3.336  0.00  0.00    +0.244 C 
ATOM      2  O   LIG    1        2.543  -4.134   4.225  0.00  0.00    -0.270 OA
ATOM      3  N   LIG    1        2.084  -6.136   3.381  0.00  0.00    -0.310 N 
ATOM      4  H   LIG    1        1.679  -6.660   2.672  0.00  0.00    +0.149 HD
ENDROOT
BRANCH   1   5
ATOM      5  C   LIG    1        1.365  -4.111   2.207  0.00  0.00    +0.037 A 
ATOM      6  C   LIG    1        1.319  -2.720   2.156  0.00  0.00    +0.028 A 
ATOM      7  C   LIG    1        0.680  -2.088   1.091  0.00  0.00    +0.060 A 
ATOM      8  C   LIG    1        0.100  -2.853   0.075  0.00  0.00    +0.015 A 
ATOM      9  C   LIG    1        0.155  -4.232   0.129  0.00  0.00    +0.002 A 
ATOM     10  C   LIG    1        0.781  -4.864   1.185  0.00  0.00    +0.013 A 
BRANCH   7  11
ATOM     11  C   LIG    1        0.620  -0.613   1.032  0.00  0.00    +0.339 C 
ATOM     12  O   LIG    1        1.129   0.051   1.913  0.00  0.00    -0.245 OA
BRANCH  11  13
ATOM     13  O   LIG    1        0.002  -0.004   0.002  0.00  0.00    -0.464 OA
ATOM     14  C   LIG    1       -0.018   1.448   0.010  0.00  0.00    +0.280 C 
ENDBRANCH  11  13
ENDBRANCH   7  11
ENDBRANCH   1   5
BRANCH   3  15
ATOM     15  C   LIG    1        2.748  -6.808   4.500  0.00  0.00    +0.117 C 
BRANCH  15  16
ATOM     16  C   LIG    1        2.661  -8.324   4.308  0.00  0.00    +0.122 C 
BRANCH  16  17
ATOM     17  S   LIG    1        3.484  -9.157   5.694  0.00  0.00    +0.028 S 
ATOM     18  O   LIG    1        4.866  -8.828   5.691  0.00  0.00    -0.257 OA
BRANCH  17  19
ATOM     19  C   LIG    1        3.279 -10.914   5.294  0.00  0.00    +0.138 C 
BRANCH  19  20
ATOM     20  C   LIG    1        3.921 -11.752   6.369  0.00  0.00    -0.035 A 
ATOM     21  C   LIG    1        3.181 -12.154   7.466  0.00  0.00    +0.004 A 
ATOM     22  C   LIG    1        3.768 -12.926   8.450  0.00  0.00    +0.000 A 
ATOM     23  C   LIG    1        5.098 -13.290   8.343  0.00  0.00    +0.000 A 
ATOM     24  C   LIG    1        5.839 -12.884   7.249  0.00  0.00    +0.000 A 
ATOM     25  C   LIG    1        5.250 -12.115   6.262  0.00  0.00    +0.004 A 
ENDBRANCH  19  20
ENDBRANCH  17  19
ENDBRANCH  16  17
ENDBRANCH  15  16
ENDBRANCH   3  15
TORSDOF 8
