REMARK  Name = ZINC000095993964
REMARK                            x       y       z     vdW  Elec       q    Type
REMARK                         _______ _______ _______ _____ _____    ______ ____
ROOT
ATOM      1  N   LIG    1       -0.415   0.556  -3.535  0.00  0.00    -0.163 NA
ATOM      2  C   LIG    1       -1.498   1.556  -3.564  0.00  0.00    +0.111 C 
ATOM      3  C   LIG    1       -0.815   2.867  -4.027  0.00  0.00    +0.019 C 
ATOM      4  C   LIG    1        0.211   2.335  -5.062  0.00  0.00    +0.022 C 
ATOM      5  C   LIG    1        0.652   0.989  -4.449  0.00  0.00    +0.088 C 
ENDROOT
BRANCH   1   6
ATOM      6  S   LIG    1       -0.399  -0.823  -2.618  0.00  0.00    +0.100 S 
ATOM      7  O   LIG    1       -1.746  -1.067  -2.237  0.00  0.00    -0.141 OA
ATOM      8  O   LIG    1        0.392  -1.767  -3.327  0.00  0.00    -0.141 OA
BRANCH   6   9
ATOM      9  N   LIG    1        0.426  -0.475  -1.224  0.00  0.00    -0.167 NA
BRANCH   9  10
ATOM     10  C   LIG    1       -0.295   0.034  -0.055  0.00  0.00    +0.107 C 
ATOM     11  C   LIG    1       -0.231   1.562  -0.042  0.00  0.00    +0.022 C 
ENDBRANCH   9  10
BRANCH   9  12
ATOM     12  C   LIG    1        1.875  -0.677  -1.161  0.00  0.00    +0.107 C 
ATOM     13  C   LIG    1        2.173  -2.053  -0.562  0.00  0.00    +0.022 C 
ENDBRANCH   9  12
ENDBRANCH   6   9
ENDBRANCH   1   6
BRANCH   5  14
ATOM     14  C   LIG    1        0.837  -0.051  -5.556  0.00  0.00    +0.100 C 
BRANCH  14  15
ATOM     15  C   LIG    1        1.982   0.361  -6.446  0.00  0.00    +0.171 C 
ATOM     16  O   LIG    1        2.654   1.331  -6.160  0.00  0.00    -0.291 OA
BRANCH  15  17
ATOM     17  C   LIG    1        2.273  -0.382  -7.611  0.00  0.00    +0.055 A 
ATOM     18  S   LIG    1        1.398  -1.805  -8.159  0.00  0.00    -0.094 S 
ATOM     19  C   LIG    1        2.410  -1.959  -9.524  0.00  0.00    +0.046 A 
ATOM     20  C   LIG    1        3.342  -0.997  -9.542  0.00  0.00    +0.008 A 
ATOM     21  C   LIG    1        3.287  -0.112  -8.495  0.00  0.00    +0.019 A 
ENDBRANCH  15  17
ENDBRANCH  14  15
ENDBRANCH   5  14
TORSDOF 7
