REMARK  Name = ZINC000012980714
REMARK                            x       y       z     vdW  Elec       q    Type
REMARK                         _______ _______ _______ _____ _____    ______ ____
ROOT
ATOM      1  O   LIG    1       -0.425  -0.355  -0.063  0.00  0.00    -0.270 OA
ATOM      2  C   LIG    1       -0.282   0.824   0.197  0.00  0.00    +0.246 C 
ATOM      3  N   LIG    1        0.929   1.293   0.559  0.00  0.00    -0.311 N 
ATOM      4  H   LIG    1        1.043   2.233   0.766  0.00  0.00    +0.149 HD
ENDROOT
BRANCH   2   5
ATOM      5  C   LIG    1       -1.434   1.745   0.110  0.00  0.00    +0.067 A 
ATOM      6  C   LIG    1       -1.791   2.528   1.209  0.00  0.00    +0.017 A 
ATOM      7  C   LIG    1       -2.867   3.386   1.122  0.00  0.00    +0.021 A 
ATOM      8  C   LIG    1       -3.594   3.472  -0.054  0.00  0.00    +0.043 A 
ATOM      9 CL   LIG    1       -4.947   4.554  -0.156  0.00  0.00    -0.083 Cl
ATOM     10  C   LIG    1       -3.245   2.698  -1.149  0.00  0.00    +0.053 A 
ATOM     11  C   LIG    1       -2.168   1.840  -1.075  0.00  0.00    +0.140 A 
BRANCH  11  12
ATOM     12  N   LIG    1       -1.796   1.014  -2.245  0.00  0.00    +0.057 N 
ATOM     13  O   LIG    1       -0.776   0.349  -2.222  0.00  0.00    -0.126 OA
ATOM     14  O   LIG    1       -2.510   0.999  -3.232  0.00  0.00    -0.126 OA
ENDBRANCH  11  12
ENDBRANCH   2   5
BRANCH   3  15
ATOM     15  C   LIG    1        2.073   0.381   0.640  0.00  0.00    +0.112 C 
BRANCH  15  16
ATOM     16  C   LIG    1        3.317   1.160   1.069  0.00  0.00    +0.095 C 
BRANCH  16  17
ATOM     17  C   LIG    1        4.494   0.223   1.152  0.00  0.00    +0.139 A 
ATOM     18  N   LIG    1        4.867  -0.459   2.205  0.00  0.00    -0.134 NA
ATOM     19  N   LIG    1        5.911  -1.161   1.934  0.00  0.00    -0.129 NA
ATOM     20  C   LIG    1        6.263  -0.962   0.674  0.00  0.00    +0.161 A 
ATOM     21  C   LIG    1        7.303  -1.463  -0.132  0.00  0.00    +0.048 A 
ATOM     22  C   LIG    1        7.397  -1.053  -1.425  0.00  0.00    +0.005 A 
ATOM     23  C   LIG    1        6.460  -0.139  -1.937  0.00  0.00    +0.018 A 
ATOM     24  C   LIG    1        5.468   0.332  -1.153  0.00  0.00    +0.094 A 
ATOM     25  N   LIG    1        5.358  -0.075   0.144  0.00  0.00    -0.286 N 
ENDBRANCH  16  17
ENDBRANCH  15  16
ENDBRANCH   3  15
TORSDOF 5
