REMARK  Name = ZINC000095992466
REMARK                            x       y       z     vdW  Elec       q    Type
REMARK                         _______ _______ _______ _____ _____    ______ ____
ROOT
ATOM      1  C   LIG    1        0.457   1.356  -0.918  0.00  0.00    +0.007 C 
ATOM      2  C   LIG    1        0.407  -0.164  -0.753  0.00  0.00    -0.012 C 
ATOM      3  C   LIG    1        1.007  -0.551   0.601  0.00  0.00    +0.038 C 
ATOM      4  C   LIG    1        0.938  -2.064   0.777  0.00  0.00    +0.113 C 
ATOM      5  C   LIG    1        1.552  -2.469   2.098  0.00  0.00    +0.247 C 
ATOM      6  O   LIG    1        1.186  -2.144   3.207  0.00  0.00    -0.273 OA
ATOM      7  N   LIG    1        2.592  -3.267   1.782  0.00  0.00    -0.220 N 
ATOM      8  C   LIG    1        2.714  -3.417   0.458  0.00  0.00    +0.310 C 
ATOM      9  O   LIG    1        3.578  -4.091  -0.070  0.00  0.00    -0.252 OA
ATOM     10  C   LIG    1       -0.503  -2.553   0.688  0.00  0.00    +0.035 C 
ATOM     11  C   LIG    1       -1.097  -2.159  -0.666  0.00  0.00    +0.003 C 
ATOM     12  N   LIG    1        1.773  -2.737  -0.225  0.00  0.00    -0.285 N 
ATOM     13  H   LIG    1        1.668  -2.700  -1.189  0.00  0.00    +0.151 HD
ATOM     14  C   LIG    1       -1.047  -0.637  -0.820  0.00  0.00    +0.003 C 
ENDROOT
BRANCH   7  15
ATOM     15  C   LIG    1        3.479  -3.892   2.767  0.00  0.00    +0.153 C 
BRANCH  15  16
ATOM     16  C   LIG    1        4.638  -2.972   3.054  0.00  0.00    -0.030 A 
ATOM     17  C   LIG    1        4.542  -2.041   4.073  0.00  0.00    +0.006 A 
ATOM     18  C   LIG    1        5.601  -1.200   4.346  0.00  0.00    +0.013 A 
ATOM     19  C   LIG    1        6.767  -1.283   3.583  0.00  0.00    +0.037 A 
ATOM     20  C   LIG    1        6.855  -2.220   2.553  0.00  0.00    +0.013 A 
ATOM     21  C   LIG    1        5.791  -3.059   2.295  0.00  0.00    +0.006 A 
BRANCH  19  22
ATOM     22  C   LIG    1        7.904  -0.381   3.865  0.00  0.00    +0.246 C 
ATOM     23  N   LIG    1        8.158   0.007   5.131  0.00  0.00    -0.304 N 
ATOM     24  C   LIG    1        7.386  -0.558   6.240  0.00  0.00    +0.132 C 
ATOM     25  C   LIG    1        9.207   0.995   5.397  0.00  0.00    +0.132 C 
ATOM     26  O   LIG    1        8.609   0.011   2.956  0.00  0.00    -0.270 OA
ENDBRANCH  19  22
ENDBRANCH  15  16
ENDBRANCH   7  15
TORSDOF 3
