REMARK  Name = ZINC000095992097
REMARK                            x       y       z     vdW  Elec       q    Type
REMARK                         _______ _______ _______ _____ _____    ______ ____
ROOT
ATOM      1  N   LIG    1        0.019  -0.657   5.361  0.00  0.00    -0.301 N 
ATOM      2  H   LIG    1        0.398   0.088   5.853  0.00  0.00    +0.150 HD
ATOM      3  C   LIG    1       -1.318  -0.819   5.308  0.00  0.00    +0.248 C 
ATOM      4  O   LIG    1       -1.794  -1.753   4.692  0.00  0.00    -0.270 OA
ENDROOT
BRANCH   1   5
ATOM      5  C   LIG    1        0.899  -1.607   4.677  0.00  0.00    +0.141 C 
ATOM      6  C   LIG    1        2.277  -1.615   5.352  0.00  0.00    +0.032 C 
ATOM      7  C   LIG    1        3.268  -2.380   4.469  0.00  0.00    +0.026 C 
ATOM      8  C   LIG    1        3.544  -1.575   3.194  0.00  0.00    +0.145 C 
ATOM      9  N   LIG    1        2.267  -1.181   2.599  0.00  0.00    -0.247 N 
ATOM     10  N   LIG    1        2.018  -0.734   1.299  0.00  0.00    -0.155 NA
ATOM     11  C   LIG    1        0.731  -0.503   1.223  0.00  0.00    +0.151 A 
ATOM     12  N   LIG    1        0.170  -0.776   2.403  0.00  0.00    -0.214 NA
ATOM     13  C   LIG    1        1.081  -1.189   3.238  0.00  0.00    +0.148 A 
BRANCH  11  14
ATOM     14  C   LIG    1        0.002  -0.004   0.002  0.00  0.00    +0.075 C 
ATOM     15  C   LIG    1       -0.019   1.526   0.010  0.00  0.00    +0.012 C 
ENDBRANCH  11  14
ENDBRANCH   1   5
BRANCH   3  16
ATOM     16  C   LIG    1       -2.204   0.136   5.996  0.00  0.00    +0.082 A 
ATOM     17  C   LIG    1       -1.819   1.242   6.726  0.00  0.00    +0.118 A 
ATOM     18  N   LIG    1       -2.929   1.841   7.183  0.00  0.00    -0.283 N 
ATOM     19  H   LIG    1       -2.946   2.644   7.727  0.00  0.00    +0.188 HD
ATOM     20  N   LIG    1       -4.055   1.132   6.757  0.00  0.00    -0.173 NA
ATOM     21  C   LIG    1       -3.669   0.104   6.036  0.00  0.00    +0.105 A 
BRANCH  21  22
ATOM     22  C   LIG    1       -4.547  -0.903   5.394  0.00  0.00    +0.003 A 
ATOM     23  C   LIG    1       -5.727  -1.303   6.020  0.00  0.00    +0.010 A 
ATOM     24  C   LIG    1       -6.543  -2.237   5.414  0.00  0.00    +0.001 A 
ATOM     25  C   LIG    1       -6.187  -2.784   4.195  0.00  0.00    +0.000 A 
ATOM     26  C   LIG    1       -5.014  -2.396   3.572  0.00  0.00    +0.001 A 
ATOM     27  C   LIG    1       -4.193  -1.458   4.165  0.00  0.00    +0.010 A 
ENDBRANCH  21  22
ENDBRANCH   3  16
TORSDOF 4
