REMARK  Name = ZINC000082138757
REMARK                            x       y       z     vdW  Elec       q    Type
REMARK                         _______ _______ _______ _____ _____    ______ ____
ROOT
ATOM      1  C   LIG    1       -1.871  -3.800   1.703  0.00  0.00    +0.224 C 
ATOM      2  N   LIG    1       -1.657  -5.001   2.275  0.00  0.00    -0.288 N 
ATOM      3  C   LIG    1       -2.638  -5.595   3.199  0.00  0.00    +0.091 C 
ATOM      4  C   LIG    1       -3.822  -4.643   3.377  0.00  0.00    +0.029 C 
ATOM      5  C   LIG    1       -3.123  -6.916   2.587  0.00  0.00    +0.136 C 
ATOM      6  N   LIG    1       -1.996  -7.710   2.115  0.00  0.00    -0.268 N 
ATOM      7  C   LIG    1       -0.796  -7.214   1.809  0.00  0.00    +0.237 C 
ATOM      8  O   LIG    1        0.040  -7.964   1.350  0.00  0.00    -0.274 OA
ATOM      9  C   LIG    1       -0.431  -5.768   2.008  0.00  0.00    +0.204 C 
ATOM     10  O   LIG    1       -2.888  -3.185   1.945  0.00  0.00    -0.275 OA
ENDROOT
BRANCH   6  11
ATOM     11  C   LIG    1       -2.187  -9.088   1.971  0.00  0.00    +0.036 A 
ATOM     12  C   LIG    1       -1.901  -9.944   3.027  0.00  0.00    +0.024 A 
ATOM     13  C   LIG    1       -2.090 -11.305   2.882  0.00  0.00    +0.005 A 
ATOM     14  C   LIG    1       -2.563 -11.815   1.687  0.00  0.00    -0.050 A 
ATOM     15  C   LIG    1       -2.767 -13.300   1.532  0.00  0.00    +0.044 C 
ATOM     16  C   LIG    1       -2.848 -10.966   0.633  0.00  0.00    +0.005 A 
ATOM     17  C   LIG    1       -2.667  -9.604   0.774  0.00  0.00    +0.024 A 
ENDBRANCH   6  11
BRANCH   1  18
ATOM     18  C   LIG    1       -0.846  -3.220   0.761  0.00  0.00    +0.173 C 
BRANCH  18  19
ATOM     19  C   LIG    1       -1.323  -1.880   0.263  0.00  0.00    +0.146 A 
ATOM     20  C   LIG    1       -1.082  -0.673   0.827  0.00  0.00    +0.071 A 
ATOM     21  C   LIG    1       -1.748   0.240  -0.023  0.00  0.00    +0.081 A 
ATOM     22  C   LIG    1       -1.812   1.738   0.134  0.00  0.00    +0.069 C 
ATOM     23  N   LIG    1       -2.289  -0.469  -0.972  0.00  0.00    -0.083 NA
ATOM     24  O   LIG    1       -2.064  -1.648  -0.830  0.00  0.00    -0.359 OA
ENDBRANCH  18  19
ENDBRANCH   1  18
TORSDOF 3
