REMARK  Name = ZINC000012979865
REMARK                            x       y       z     vdW  Elec       q    Type
REMARK                         _______ _______ _______ _____ _____    ______ ____
ROOT
ATOM      1  C   LIG    1        1.055   7.755   0.241  0.00  0.00    +0.037 A 
ATOM      2  C   LIG    1        2.250   8.472   0.333  0.00  0.00    +0.015 A 
ATOM      3  C   LIG    1        2.219   9.847   0.439  0.00  0.00    +0.029 A 
ATOM      4  C   LIG    1        1.007  10.515   0.465  0.00  0.00    +0.105 A 
ATOM      5  C   LIG    1       -0.180   9.810   0.380  0.00  0.00    +0.029 A 
ATOM      6  C   LIG    1       -0.164   8.435   0.268  0.00  0.00    +0.015 A 
ENDROOT
BRANCH   1   7
ATOM      7  C   LIG    1        1.081   6.282   0.121  0.00  0.00    +0.248 C 
ATOM      8  O   LIG    1        2.144   5.693   0.103  0.00  0.00    -0.270 OA
ATOM      9  N   LIG    1       -0.074   5.593   0.033  0.00  0.00    -0.282 N 
ATOM     10  H   LIG    1       -0.918   6.067  -0.030  0.00  0.00    +0.155 HD
BRANCH   9  11
ATOM     11  C   LIG    1       -0.055   4.199   0.031  0.00  0.00    +0.034 A 
ATOM     12  C   LIG    1        0.905   3.517   0.771  0.00  0.00    +0.024 A 
ATOM     13  C   LIG    1        0.927   2.140   0.771  0.00  0.00    +0.020 A 
ATOM     14  C   LIG    1       -0.019   1.428   0.028  0.00  0.00    +0.052 A 
ATOM     15  C   LIG    1       -0.979   2.116  -0.718  0.00  0.00    +0.020 A 
ATOM     16  C   LIG    1       -0.998   3.493  -0.710  0.00  0.00    +0.024 A 
BRANCH  14  17
ATOM     17  C   LIG    1        0.000  -0.004   0.026  0.00  0.00    +0.099 C 
ATOM     18  N   LIG    1        0.015  -1.140   0.025  0.00  0.00    -0.191 NA
ENDBRANCH  14  17
ENDBRANCH   9  11
ENDBRANCH   1   7
BRANCH   4  19
ATOM     19  S   LIG    1        0.977  12.271   0.608  0.00  0.00    +0.059 S 
ATOM     20  O   LIG    1        2.231  12.735   0.129  0.00  0.00    -0.153 OA
ATOM     21  O   LIG    1       -0.267  12.696   0.068  0.00  0.00    -0.153 OA
BRANCH  19  22
ATOM     22  N   LIG    1        0.931  12.630   2.224  0.00  0.00    -0.187 NA
ATOM     23  H   LIG    1        0.154  13.070   2.602  0.00  0.00    +0.148 HD
BRANCH  22  24
ATOM     24  C   LIG    1        2.066  12.284   3.084  0.00  0.00    +0.077 C 
ATOM     25  C   LIG    1        1.760  11.854   4.519  0.00  0.00    +0.022 C 
ATOM     26  C   LIG    1        2.383  13.224   4.248  0.00  0.00    +0.022 C 
ENDBRANCH  22  24
ENDBRANCH  19  22
ENDBRANCH   4  19
TORSDOF 6
