REMARK  Name = ZINC000058177636
REMARK                            x       y       z     vdW  Elec       q    Type
REMARK                         _______ _______ _______ _____ _____    ______ ____
ROOT
ATOM      1  O   LIG    1        0.003  -0.004   0.000  0.00  0.00    -0.252 OA
ATOM      2  C   LIG    1       -0.014   1.211   0.003  0.00  0.00    +0.304 C 
ATOM      3  N   LIG    1       -1.191   1.869   0.002  0.00  0.00    -0.294 N 
ATOM      4  H   LIG    1       -1.204   2.839   0.004  0.00  0.00    +0.151 HD
ATOM      5  N   LIG    1        1.143   1.901   0.001  0.00  0.00    -0.268 N 
ATOM      6  H   LIG    1        1.131   2.869  -0.062  0.00  0.00    +0.156 HD
ENDROOT
BRANCH   5   7
ATOM      7  C   LIG    1        2.365   1.221   0.092  0.00  0.00    +0.057 A 
ATOM      8  C   LIG    1        3.426   1.788   0.787  0.00  0.00    +0.064 A 
ATOM      9 CL   LIG    1        3.235   3.340   1.542  0.00  0.00    -0.082 Cl
ATOM     10  C   LIG    1        4.633   1.119   0.878  0.00  0.00    +0.048 A 
ATOM     11  C   LIG    1        4.784  -0.118   0.275  0.00  0.00    +0.077 A 
ATOM     12  N   LIG    1        6.001  -0.812   0.359  0.00  0.00    -0.280 N 
ATOM     13  H   LIG    1        6.672  -0.554   1.010  0.00  0.00    +0.155 HD
ATOM     14  C   LIG    1        6.225  -1.845  -0.482  0.00  0.00    +0.255 C 
ATOM     15  O   LIG    1        7.257  -2.479  -0.408  0.00  0.00    -0.272 OA
ATOM     16  C   LIG    1        5.187  -2.208  -1.514  0.00  0.00    +0.325 C 
ATOM     17  O   LIG    1        3.883  -1.906  -1.010  0.00  0.00    -0.481 OA
ATOM     18  C   LIG    1        3.720  -0.690  -0.423  0.00  0.00    +0.144 A 
ATOM     19  C   LIG    1        2.512  -0.023  -0.509  0.00  0.00    +0.072 A 
ENDBRANCH   5   7
BRANCH   3  20
ATOM     20  C   LIG    1       -2.449   1.119  -0.003  0.00  0.00    +0.103 C 
ATOM     21  C   LIG    1       -2.826   0.747   1.433  0.00  0.00    +0.025 C 
ATOM     22  C   LIG    1       -4.140  -0.037   1.428  0.00  0.00    +0.002 C 
ATOM     23  C   LIG    1       -5.246   0.826   0.818  0.00  0.00    +0.003 C 
ATOM     24  C   LIG    1       -4.869   1.199  -0.617  0.00  0.00    +0.033 C 
ATOM     25  C   LIG    1       -3.555   1.982  -0.613  0.00  0.00    +0.135 C 
BRANCH  25  26
ATOM     26  O   LIG    1       -3.203   2.330  -1.953  0.00  0.00    -0.390 OA
ATOM     27  H   LIG    1       -3.861   2.878  -2.403  0.00  0.00    +0.210 HD
ENDBRANCH  25  26
ENDBRANCH   3  20
TORSDOF 3
