REMARK  Name = ZINC000012971233
REMARK                            x       y       z     vdW  Elec       q    Type
REMARK                         _______ _______ _______ _____ _____    ______ ____
ROOT
ATOM      1  C   LIG    1       -1.812  -8.233   0.670  0.00  0.00    +0.173 C 
ATOM      2  O   LIG    1       -2.496  -8.387   1.660  0.00  0.00    -0.291 OA
ENDROOT
BRANCH   1   3
ATOM      3  C   LIG    1       -1.297  -9.401  -0.055  0.00  0.00    +0.020 A 
ATOM      4  C   LIG    1       -1.595 -10.694   0.394  0.00  0.00    +0.038 A 
ATOM      5  C   LIG    1       -1.113 -11.786  -0.297  0.00  0.00    +0.076 A 
ATOM      6  N   LIG    1       -1.405 -13.089   0.131  0.00  0.00    -0.280 N 
ATOM      7  H   LIG    1       -2.121 -13.251   0.765  0.00  0.00    +0.155 HD
ATOM      8  C   LIG    1       -0.673 -14.117  -0.353  0.00  0.00    +0.255 C 
ATOM      9  O   LIG    1       -0.927 -15.255  -0.020  0.00  0.00    -0.272 OA
ATOM     10  C   LIG    1        0.460 -13.842  -1.309  0.00  0.00    +0.325 C 
ATOM     11  O   LIG    1        0.155 -12.689  -2.097  0.00  0.00    -0.481 OA
ATOM     12  C   LIG    1       -0.319 -11.603  -1.434  0.00  0.00    +0.142 A 
ATOM     13  C   LIG    1       -0.019 -10.322  -1.875  0.00  0.00    +0.048 A 
ATOM     14  C   LIG    1       -0.502  -9.226  -1.194  0.00  0.00    +0.015 A 
ENDBRANCH   1   3
BRANCH   1  15
ATOM     15  C   LIG    1       -1.490  -6.843   0.186  0.00  0.00    +0.157 C 
BRANCH  15  16
ATOM     16  S   LIG    1       -2.262  -5.627   1.282  0.00  0.00    -0.078 S 
BRANCH  16  17
ATOM     17  C   LIG    1       -1.737  -4.136   0.504  0.00  0.00    +0.189 A 
ATOM     18  N   LIG    1       -2.025  -2.864   0.908  0.00  0.00    -0.320 N 
ATOM     19  H   LIG    1       -2.558  -2.600   1.675  0.00  0.00    +0.169 HD
ATOM     20  C   LIG    1       -1.413  -2.041   0.005  0.00  0.00    +0.131 A 
ATOM     21  N   LIG    1       -0.804  -2.800  -0.862  0.00  0.00    -0.134 NA
ATOM     22  N   LIG    1       -0.992  -4.038  -0.573  0.00  0.00    -0.123 NA
BRANCH  20  23
ATOM     23  C   LIG    1       -1.433  -0.534   0.013  0.00  0.00    +0.076 C 
BRANCH  23  24
ATOM     24  C   LIG    1        0.002  -0.004   0.002  0.00  0.00    +0.004 C 
ATOM     25  C   LIG    1       -0.019   1.526   0.010  0.00  0.00    +0.004 C 
ENDBRANCH  23  24
ENDBRANCH  20  23
ENDBRANCH  16  17
ENDBRANCH  15  16
ENDBRANCH   1  15
TORSDOF 6
