REMARK  Name = ZINC000069617217
REMARK                            x       y       z     vdW  Elec       q    Type
REMARK                         _______ _______ _______ _____ _____    ______ ____
ROOT
ATOM      1  C   LIG    1        0.657  -2.104  -1.120  0.00  0.00    +0.216 C 
ENDROOT
BRANCH   1   2
ATOM      2  C   LIG    1        1.400  -2.639   0.077  0.00  0.00    +0.021 A 
ATOM      3  C   LIG    1        0.728  -2.859   1.268  0.00  0.00    +0.129 A 
ATOM      4  C   LIG    1        1.409  -3.356   2.366  0.00  0.00    +0.041 A 
ATOM      5  C   LIG    1        2.763  -3.622   2.277  0.00  0.00    +0.041 A 
ATOM      6  C   LIG    1        3.436  -3.397   1.088  0.00  0.00    +0.124 A 
ATOM      7  F   LIG    1        4.758  -3.658   1.001  0.00  0.00    -0.205 F 
ATOM      8  F   LIG    1       -0.595  -2.598   1.355  0.00  0.00    -0.205 F 
ATOM      9  C   LIG    1        2.753  -2.905  -0.011  0.00  0.00    +0.047 A 
ENDBRANCH   1   2
BRANCH   1  10
ATOM     10  N   LIG    1        1.354  -2.503  -2.345  0.00  0.00    -0.293 N 
ATOM     11  H   LIG    1        2.304  -2.698  -2.322  0.00  0.00    +0.150 HD
ATOM     12  C   LIG    1        0.675  -2.599  -3.505  0.00  0.00    +0.263 C 
ATOM     13  O   LIG    1       -0.516  -2.355  -3.535  0.00  0.00    -0.269 OA
BRANCH  12  14
ATOM     14  C   LIG    1        1.374  -3.000  -4.736  0.00  0.00    +0.120 A 
ATOM     15  N   LIG    1        2.700  -3.305  -4.864  0.00  0.00    -0.272 N 
ATOM     16  H   LIG    1        3.347  -3.296  -4.142  0.00  0.00    +0.189 HD
ATOM     17  N   LIG    1        2.955  -3.615  -6.084  0.00  0.00    -0.178 NA
ATOM     18  C   LIG    1        1.878  -3.533  -6.823  0.00  0.00    +0.067 A 
ATOM     19  C   LIG    1        0.822  -3.138  -5.998  0.00  0.00    +0.057 A 
BRANCH  18  20
ATOM     20  C   LIG    1        1.792  -3.815  -8.300  0.00  0.00    +0.040 C 
ATOM     21  C   LIG    1        0.559  -3.302  -9.047  0.00  0.00    +0.010 C 
ATOM     22  C   LIG    1        1.916  -2.626  -9.255  0.00  0.00    +0.010 C 
ENDBRANCH  18  20
ENDBRANCH  12  14
ENDBRANCH   1  10
BRANCH   1  23
ATOM     23  C   LIG    1        0.598  -0.600  -1.043  0.00  0.00    +0.332 C 
ATOM     24  O   LIG    1        1.088   0.070  -1.921  0.00  0.00    -0.248 OA
BRANCH  23  25
ATOM     25  O   LIG    1        0.002  -0.004   0.002  0.00  0.00    -0.466 OA
ATOM     26  C   LIG    1       -0.018   1.448   0.010  0.00  0.00    +0.280 C 
ENDBRANCH  23  25
ENDBRANCH   1  23
TORSDOF 6
