REMARK  Name = ZINC000095992198
REMARK                            x       y       z     vdW  Elec       q    Type
REMARK                         _______ _______ _______ _____ _____    ______ ____
ROOT
ATOM      1  N   LIG    1        1.292  -3.243  -5.316  0.00  0.00    -0.309 N 
ATOM      2  H   LIG    1        2.046  -2.919  -4.798  0.00  0.00    +0.149 HD
ATOM      3  C   LIG    1        1.504  -3.954  -6.441  0.00  0.00    +0.216 C 
ATOM      4  O   LIG    1        0.561  -4.359  -7.089  0.00  0.00    -0.276 OA
ENDROOT
BRANCH   3   5
ATOM      5  C   LIG    1        2.910  -4.246  -6.895  0.00  0.00    +0.076 C 
ATOM      6  C   LIG    1        3.641  -5.043  -5.812  0.00  0.00    +0.017 C 
BRANCH   5   7
ATOM      7  C   LIG    1        2.870  -5.062  -8.189  0.00  0.00    +0.051 C 
BRANCH   7   8
ATOM      8  C   LIG    1        4.272  -5.250  -8.709  0.00  0.00    -0.004 A 
ATOM      9  C   LIG    1        5.132  -6.306  -8.393  0.00  0.00    +0.063 A 
ATOM     10  C   LIG    1        4.816  -7.460  -7.476  0.00  0.00    +0.068 C 
ATOM     11  N   LIG    1        6.256  -6.125  -9.038  0.00  0.00    -0.179 NA
ATOM     12  N   LIG    1        6.150  -4.940  -9.778  0.00  0.00    -0.281 N 
ATOM     13  H   LIG    1        6.836  -4.559 -10.348  0.00  0.00    +0.189 HD
ATOM     14  C   LIG    1        4.923  -4.422  -9.559  0.00  0.00    +0.036 A 
ATOM     15  C   LIG    1        4.376  -3.151 -10.154  0.00  0.00    +0.065 C 
ENDBRANCH   7   8
ENDBRANCH   5   7
ENDBRANCH   3   5
BRANCH   1  16
ATOM     16  C   LIG    1       -0.075  -2.959  -4.875  0.00  0.00    +0.159 C 
BRANCH  16  17
ATOM     17  C   LIG    1       -0.035  -2.155  -3.600  0.00  0.00    +0.059 A 
ATOM     18  N   LIG    1        0.079  -2.779  -2.443  0.00  0.00    -0.255 NA
ATOM     19  C   LIG    1        0.123  -2.126  -1.302  0.00  0.00    +0.049 A 
ATOM     20  C   LIG    1        0.254  -2.888  -0.008  0.00  0.00    +0.066 C 
ATOM     21  C   LIG    1        0.040  -0.730  -1.279  0.00  0.00    +0.038 A 
ATOM     22  C   LIG    1       -0.081  -0.040  -2.494  0.00  0.00    +0.015 A 
ATOM     23  C   LIG    1       -0.118  -0.776  -3.664  0.00  0.00    +0.025 A 
BRANCH  21  24
ATOM     24  C   LIG    1        0.084   0.002  -0.003  0.00  0.00    +0.162 C 
ATOM     25  O   LIG    1        0.298  -0.594   1.031  0.00  0.00    -0.292 OA
ATOM     26  C   LIG    1       -0.138   1.492   0.019  0.00  0.00    +0.091 C 
ENDBRANCH  21  24
ENDBRANCH  16  17
ENDBRANCH   1  16
TORSDOF 6
