REMARK  Name = ZINC000005051025
REMARK                            x       y       z     vdW  Elec       q    Type
REMARK                         _______ _______ _______ _____ _____    ______ ____
ROOT
ATOM      1  C   LIG    1       -2.615  -2.595   0.013  0.00  0.00    +0.175 A 
ATOM      2  C   LIG    1       -3.220  -2.920   1.220  0.00  0.00    +0.059 A 
ATOM      3  I   LIG    1       -2.276  -2.431   3.026  0.00  0.00    -0.040 I 
ATOM      4  C   LIG    1       -4.440  -3.562   1.234  0.00  0.00    +0.031 A 
ATOM      5  C   LIG    1       -5.070  -3.888   0.031  0.00  0.00    +0.041 A 
ATOM      6  C   LIG    1       -4.462  -3.561  -1.185  0.00  0.00    +0.062 A 
ATOM      7  C   LIG    1       -3.243  -2.913  -1.191  0.00  0.00    +0.163 A 
ENDROOT
BRANCH   5   8
ATOM      8  C   LIG    1       -6.377  -4.575   0.043  0.00  0.00    +0.244 C 
ATOM      9  N   LIG    1       -6.962  -4.888   1.216  0.00  0.00    -0.314 N 
ATOM     10  H   LIG    1       -6.525  -4.663   2.052  0.00  0.00    +0.149 HD
ATOM     11  C   LIG    1       -8.259  -5.570   1.228  0.00  0.00    +0.128 C 
ATOM     12  O   LIG    1       -6.925  -4.858  -1.005  0.00  0.00    -0.270 OA
ENDBRANCH   5   8
BRANCH   7  13
ATOM     13  O   LIG    1       -2.648  -2.594  -2.372  0.00  0.00    -0.491 OA
ATOM     14  C   LIG    1       -3.342  -2.960  -3.567  0.00  0.00    +0.277 C 
ENDBRANCH   7  13
BRANCH   1  15
ATOM     15  O   LIG    1       -1.414  -1.962   0.005  0.00  0.00    -0.487 OA
BRANCH  15  16
ATOM     16  C   LIG    1       -1.433  -0.534   0.013  0.00  0.00    +0.229 C 
BRANCH  16  17
ATOM     17  C   LIG    1        0.002  -0.004   0.002  0.00  0.00    +0.038 C 
ATOM     18  C   LIG    1       -0.019   1.526   0.010  0.00  0.00    +0.007 C 
ENDBRANCH  16  17
ENDBRANCH  15  16
ENDBRANCH   1  15
TORSDOF 5
