REMARK  Name = ZINC000058180839
REMARK                            x       y       z     vdW  Elec       q    Type
REMARK                         _______ _______ _______ _____ _____    ______ ____
ROOT
ATOM      1  O   LIG    1        0.002  -0.004   0.002  0.00  0.00    -0.272 OA
ATOM      2  C   LIG    1       -0.014   1.209   0.009  0.00  0.00    +0.257 C 
ATOM      3  N   LIG    1        1.143   1.898   0.001  0.00  0.00    -0.308 N 
ATOM      4  H   LIG    1        1.130   2.868   0.007  0.00  0.00    +0.149 HD
ENDROOT
BRANCH   2   5
ATOM      5  C   LIG    1       -1.330   1.944   0.019  0.00  0.00    +0.296 C 
ATOM      6  O   LIG    1       -2.406   1.007   0.123  0.00  0.00    -0.473 OA
ATOM      7  C   LIG    1       -3.655   1.476  -0.152  0.00  0.00    +0.163 A 
ATOM      8  C   LIG    1       -4.761   0.749   0.262  0.00  0.00    +0.049 A 
ATOM      9  C   LIG    1       -6.035   1.209  -0.016  0.00  0.00    +0.004 A 
ATOM     10  C   LIG    1       -6.209   2.393  -0.707  0.00  0.00    +0.004 A 
ATOM     11  C   LIG    1       -5.111   3.123  -1.121  0.00  0.00    +0.049 A 
ATOM     12  C   LIG    1       -3.830   2.668  -0.844  0.00  0.00    +0.162 A 
ATOM     13  O   LIG    1       -2.758   3.400  -1.254  0.00  0.00    -0.484 OA
ATOM     14  C   LIG    1       -1.496   2.725  -1.292  0.00  0.00    +0.283 C 
ENDBRANCH   2   5
BRANCH   3  15
ATOM     15  C   LIG    1        2.422   1.183  -0.015  0.00  0.00    +0.141 C 
BRANCH  15  16
ATOM     16  C   LIG    1        3.554   2.178  -0.020  0.00  0.00    -0.012 A 
ATOM     17  C   LIG    1        4.090   2.632   1.169  0.00  0.00    +0.119 A 
ATOM     18  N   LIG    1        5.085   3.499   1.175  0.00  0.00    -0.221 NA
ATOM     19  C   LIG    1        5.599   3.973   0.052  0.00  0.00    +0.215 A 
ATOM     20  C   LIG    1        5.106   3.564  -1.180  0.00  0.00    +0.067 A 
ATOM     21  C   LIG    1        4.066   2.652  -1.220  0.00  0.00    +0.012 A 
BRANCH  19  22
ATOM     22  O   LIG    1        6.617   4.868   0.105  0.00  0.00    -0.476 OA
BRANCH  22  23
ATOM     23  C   LIG    1        7.080   5.248   1.403  0.00  0.00    +0.234 C 
BRANCH  23  24
ATOM     24  C   LIG    1        8.223   6.255   1.261  0.00  0.00    +0.027 C 
ATOM     25  C   LIG    1        8.936   6.699   2.540  0.00  0.00    +0.007 C 
ATOM     26  C   LIG    1        7.996   7.664   1.815  0.00  0.00    +0.007 C 
ENDBRANCH  23  24
ENDBRANCH  22  23
ENDBRANCH  19  22
ENDBRANCH  15  16
ENDBRANCH   3  15
TORSDOF 6
