REMARK  Name = ZINC000095991332
REMARK                            x       y       z     vdW  Elec       q    Type
REMARK                         _______ _______ _______ _____ _____    ______ ____
ROOT
ATOM      1  C   LIG    1       -2.496  -0.417   0.010  0.00  0.00    +0.271 C 
ATOM      2  O   LIG    1       -2.785   0.764   0.017  0.00  0.00    -0.268 OA
ATOM      3  N   LIG    1       -3.469  -1.349   0.010  0.00  0.00    -0.264 N 
ATOM      4  H   LIG    1       -3.238  -2.291   0.004  0.00  0.00    +0.157 HD
ENDROOT
BRANCH   3   5
ATOM      5  C   LIG    1       -4.808  -0.959   0.017  0.00  0.00    +0.139 A 
ATOM      6  N   LIG    1       -5.115   0.328   0.019  0.00  0.00    -0.236 NA
ATOM      7  C   LIG    1       -6.369   0.741   0.027  0.00  0.00    +0.151 A 
ATOM      8  C   LIG    1       -7.413  -0.165   0.032  0.00  0.00    +0.143 A 
ATOM      9  F   LIG    1       -8.693   0.268   0.039  0.00  0.00    -0.204 F 
ATOM     10  C   LIG    1       -7.132  -1.526   0.030  0.00  0.00    +0.057 A 
ATOM     11  C   LIG    1       -5.807  -1.926   0.017  0.00  0.00    +0.056 A 
ATOM     12  I   LIG    1       -5.313  -3.962   0.013  0.00  0.00    -0.040 I 
ENDBRANCH   3   5
BRANCH   1  13
ATOM     13  C   LIG    1       -1.081  -0.829   0.003  0.00  0.00    +0.166 A 
ATOM     14  C   LIG    1        0.002  -0.004   0.002  0.00  0.00    +0.134 A 
ATOM     15  C   LIG    1       -0.018   1.503   0.010  0.00  0.00    +0.089 C 
ATOM     16  O   LIG    1        1.092  -0.788  -0.013  0.00  0.00    -0.447 OA
ATOM     17  C   LIG    1        0.688  -2.067  -0.012  0.00  0.00    +0.308 A 
ATOM     18  N   LIG    1       -0.611  -2.106  -0.007  0.00  0.00    -0.211 NA
ENDBRANCH   1  13
TORSDOF 2
