REMARK  Name = ZINC000095993417
REMARK                            x       y       z     vdW  Elec       q    Type
REMARK                         _______ _______ _______ _____ _____    ______ ____
ROOT
ATOM      1  C   LIG    1        0.010   1.425  -0.165  0.00  0.00    +0.009 C 
ATOM      2  C   LIG    1       -0.015  -0.102  -0.089  0.00  0.00    +0.009 C 
ATOM      3  C   LIG    1        0.765  -0.566   1.145  0.00  0.00    +0.104 C 
ATOM      4  N   LIG    1        0.062  -0.104   2.350  0.00  0.00    -0.296 N 
ATOM      5  C   LIG    1        0.710   0.610   3.292  0.00  0.00    +0.220 C 
ATOM      6  O   LIG    1        1.901   0.812   3.187  0.00  0.00    -0.275 OA
ATOM      7  C   LIG    1       -1.361  -0.435   2.509  0.00  0.00    +0.108 C 
ATOM      8  C   LIG    1       -2.117   0.026   1.259  0.00  0.00    +0.019 C 
ATOM      9  C   LIG    1       -1.464  -0.585   0.017  0.00  0.00    +0.007 C 
ENDROOT
BRANCH   5  10
ATOM     10  C   LIG    1       -0.046   1.158   4.475  0.00  0.00    +0.131 C 
BRANCH  10  11
ATOM     11  C   LIG    1        0.902   1.911   5.372  0.00  0.00    -0.034 A 
ATOM     12  C   LIG    1        1.564   1.248   6.388  0.00  0.00    +0.028 A 
ATOM     13  C   LIG    1        2.433   1.938   7.214  0.00  0.00    +0.086 A 
ATOM     14 CL   LIG    1        3.264   1.102   8.490  0.00  0.00    -0.080 Cl
ATOM     15  C   LIG    1        2.643   3.296   7.024  0.00  0.00    +0.180 A 
ATOM     16  O   LIG    1        3.495   3.963   7.850  0.00  0.00    -0.483 OA
ATOM     17  C   LIG    1        3.963   5.238   7.399  0.00  0.00    +0.270 C 
ATOM     18  C   LIG    1        2.760   6.032   6.870  0.00  0.00    +0.270 C 
ATOM     19  O   LIG    1        2.174   5.292   5.793  0.00  0.00    -0.485 OA
ATOM     20  C   LIG    1        1.979   3.961   6.000  0.00  0.00    +0.164 A 
ATOM     21  C   LIG    1        1.112   3.263   5.173  0.00  0.00    +0.053 A 
ENDBRANCH  10  11
ENDBRANCH   5  10
BRANCH   3  22
ATOM     22  C   LIG    1        2.176   0.026   1.116  0.00  0.00    +0.178 C 
BRANCH  22  23
ATOM     23  O   LIG    1        2.974  -0.596   2.125  0.00  0.00    -0.393 OA
ATOM     24  H   LIG    1        3.883  -0.269   2.164  0.00  0.00    +0.209 HD
ENDBRANCH  22  23
ENDBRANCH   3  22
TORSDOF 4
