REMARK  Name = ZINC000058178035
REMARK                            x       y       z     vdW  Elec       q    Type
REMARK                         _______ _______ _______ _____ _____    ______ ____
ROOT
ATOM      1  N   LIG    1       -2.978   4.905   1.451  0.00  0.00    -0.323 N 
ATOM      2  H   LIG    1       -2.417   4.595   2.179  0.00  0.00    +0.148 HD
ENDROOT
BRANCH   1   3
ATOM      3  C   LIG    1       -4.166   5.564   1.724  0.00  0.00    +0.148 A 
ATOM      4  C   LIG    1       -4.566   5.796   3.041  0.00  0.00    +0.125 A 
ATOM      5  N   LIG    1       -4.045   5.518   4.287  0.00  0.00    -0.340 N 
ATOM      6  C   LIG    1       -4.914   6.006   5.201  0.00  0.00    +0.199 A 
ATOM      7  N   LIG    1       -5.929   6.563   4.602  0.00  0.00    -0.216 NA
ATOM      8  H   LIG    1       -3.212   5.057   4.473  0.00  0.00    +0.167 HD
ATOM      9  C   LIG    1       -5.778   6.469   3.267  0.00  0.00    +0.183 A 
ATOM     10  N   LIG    1       -6.500   6.861   2.213  0.00  0.00    -0.214 NA
ATOM     11  C   LIG    1       -6.083   6.620   0.990  0.00  0.00    +0.225 A 
ATOM     12  N   LIG    1       -4.947   5.994   0.737  0.00  0.00    -0.219 NA
ENDBRANCH   1   3
BRANCH   1  13
ATOM     13  C   LIG    1       -2.571   4.675   0.063  0.00  0.00    +0.138 C 
BRANCH  13  14
ATOM     14  C   LIG    1       -1.253   3.944   0.041  0.00  0.00    -0.026 A 
ATOM     15  C   LIG    1       -1.231   2.562   0.033  0.00  0.00    +0.024 A 
ATOM     16  C   LIG    1       -0.024   1.887   0.012  0.00  0.00    +0.064 A 
ATOM     17  C   LIG    1        1.167   2.596   0.005  0.00  0.00    +0.180 A 
ATOM     18  C   LIG    1        1.144   3.988   0.007  0.00  0.00    +0.168 A 
ATOM     19  O   LIG    1        2.430   4.446  -0.009  0.00  0.00    -0.453 OA
ATOM     20  C   LIG    1        3.230   3.327  -0.442  0.00  0.00    +0.466 C 
ATOM     21  O   LIG    1        2.468   2.181  -0.018  0.00  0.00    -0.451 OA
ATOM     22 BR   LIG    1        0.002  -0.004   0.002  0.00  0.00    -0.046 Br
ATOM     23  C   LIG    1       -0.069   4.657   0.028  0.00  0.00    +0.054 A 
ENDBRANCH  13  14
ENDBRANCH   1  13
TORSDOF 3
