REMARK  Name = ZINC000000224866
REMARK                            x       y       z     vdW  Elec       q    Type
REMARK                         _______ _______ _______ _____ _____    ______ ____
ROOT
ATOM      1  C   LIG    1        5.140  -3.485  -5.185  0.00  0.00    +0.119 C 
ENDROOT
BRANCH   1   2
ATOM      2  C   LIG    1        6.576  -3.644  -4.758  0.00  0.00    +0.215 C 
ATOM      3  O   LIG    1        6.930  -3.256  -3.664  0.00  0.00    -0.276 OA
ATOM      4  N   LIG    1        7.467  -4.219  -5.590  0.00  0.00    -0.311 N 
ATOM      5  H   LIG    1        7.184  -4.529  -6.464  0.00  0.00    +0.149 HD
BRANCH   4   6
ATOM      6  C   LIG    1        8.864  -4.374  -5.174  0.00  0.00    +0.139 C 
BRANCH   6   7
ATOM      7  C   LIG    1        9.645  -5.040  -6.277  0.00  0.00    -0.030 A 
ATOM      8  C   LIG    1        9.741  -6.418  -6.322  0.00  0.00    +0.005 A 
ATOM      9  C   LIG    1       10.458  -7.029  -7.334  0.00  0.00    +0.003 A 
ATOM     10  C   LIG    1       11.079  -6.261  -8.301  0.00  0.00    -0.050 A 
ATOM     11  C   LIG    1       10.982  -4.883  -8.258  0.00  0.00    +0.003 A 
ATOM     12  C   LIG    1       11.861  -6.926  -9.404  0.00  0.00    +0.044 C 
ATOM     13  C   LIG    1       10.261  -4.272  -7.248  0.00  0.00    +0.005 A 
ENDBRANCH   6   7
ENDBRANCH   4   6
ENDBRANCH   1   2
BRANCH   1  14
ATOM     14  C   LIG    1        4.347  -2.809  -4.065  0.00  0.00    +0.181 C 
BRANCH  14  15
ATOM     15  S   LIG    1        2.618  -2.616  -4.580  0.00  0.00    -0.003 S 
ATOM     16  O   LIG    1        1.981  -3.883  -4.671  0.00  0.00    -0.169 OA
ATOM     17  O   LIG    1        2.514  -1.666  -5.631  0.00  0.00    -0.169 OA
BRANCH  15  18
ATOM     18  C   LIG    1        1.835  -1.835  -3.209  0.00  0.00    +0.088 A 
ATOM     19  C   LIG    1        1.271  -2.602  -2.206  0.00  0.00    +0.030 A 
ATOM     20  C   LIG    1        0.661  -1.992  -1.128  0.00  0.00    +0.047 A 
ATOM     21  C   LIG    1        0.606  -0.607  -1.056  0.00  0.00    +0.120 A 
ATOM     22  C   LIG    1        1.173   0.161  -2.062  0.00  0.00    +0.047 A 
ATOM     23  C   LIG    1        1.786  -0.455  -3.136  0.00  0.00    +0.030 A 
BRANCH  21  24
ATOM     24  O   LIG    1        0.002  -0.004   0.002  0.00  0.00    -0.495 OA
ATOM     25  C   LIG    1       -0.017   1.425   0.010  0.00  0.00    +0.277 C 
ENDBRANCH  21  24
ENDBRANCH  15  18
ENDBRANCH  14  15
ENDBRANCH   1  14
TORSDOF 7
