REMARK  Name = ZINC000000223668
REMARK                            x       y       z     vdW  Elec       q    Type
REMARK                         _______ _______ _______ _____ _____    ______ ____
ROOT
ATOM      1  C   LIG    1       -0.953  -3.370  -3.258  0.00  0.00    +0.153 C 
ENDROOT
BRANCH   1   2
ATOM      2  C   LIG    1       -2.258  -3.499  -2.516  0.00  0.00    +0.078 A 
ATOM      3  C   LIG    1       -2.417  -4.527  -1.487  0.00  0.00    +0.011 A 
ATOM      4  C   LIG    1       -3.654  -4.621  -0.810  0.00  0.00    +0.050 A 
ATOM      5  C   LIG    1       -3.834  -5.591   0.174  0.00  0.00    +0.014 A 
ATOM      6  C   LIG    1       -2.801  -6.451   0.477  0.00  0.00    +0.001 A 
ATOM      7  C   LIG    1       -1.585  -6.360  -0.187  0.00  0.00    +0.001 A 
ATOM      8  C   LIG    1       -4.717  -3.675  -1.172  0.00  0.00    +0.275 A 
ATOM      9  O   LIG    1       -5.799  -3.713  -0.614  0.00  0.00    -0.266 OA
ATOM     10  N   LIG    1       -4.475  -2.765  -2.139  0.00  0.00    -0.232 N 
ATOM     11  C   LIG    1       -5.531  -1.821  -2.510  0.00  0.00    +0.176 C 
ATOM     12  C   LIG    1       -1.385  -5.410  -1.163  0.00  0.00    +0.010 A 
ATOM     13  N   LIG    1       -3.243  -2.696  -2.790  0.00  0.00    -0.172 NA
ENDBRANCH   1   2
BRANCH   1  14
ATOM     14  C   LIG    1       -1.050  -2.244  -4.254  0.00  0.00    +0.223 C 
ATOM     15  O   LIG    1       -2.078  -1.609  -4.353  0.00  0.00    -0.275 OA
ATOM     16  N   LIG    1        0.006  -1.944  -5.036  0.00  0.00    -0.281 N 
ATOM     17  H   LIG    1        0.851  -2.402  -4.907  0.00  0.00    +0.155 HD
BRANCH  16  18
ATOM     18  C   LIG    1       -0.118  -0.968  -6.036  0.00  0.00    +0.105 A 
ATOM     19  C   LIG    1        0.173   0.361  -5.752  0.00  0.00    +0.147 A 
ATOM     20  F   LIG    1        0.581   0.714  -4.514  0.00  0.00    -0.203 F 
ATOM     21  C   LIG    1        0.056   1.319  -6.743  0.00  0.00    +0.040 A 
ATOM     22  C   LIG    1       -0.361   0.958  -8.011  0.00  0.00    +0.006 A 
ATOM     23  C   LIG    1       -0.658  -0.362  -8.295  0.00  0.00    +0.040 A 
ATOM     24  C   LIG    1       -0.537  -1.327  -7.311  0.00  0.00    +0.147 A 
ATOM     25  F   LIG    1       -0.827  -2.617  -7.590  0.00  0.00    -0.203 F 
ENDBRANCH  16  18
ENDBRANCH   1  14
TORSDOF 3
