REMARK  Name = ZINC000277115646
REMARK                            x       y       z     vdW  Elec       q    Type
REMARK                         _______ _______ _______ _____ _____    ______ ____
ROOT
ATOM      1  C   LIG    1       -4.783  -6.932   0.129  0.00  0.00    +0.117 C 
ENDROOT
BRANCH   1   2
ATOM      2  N   LIG    1       -3.466  -6.375   0.447  0.00  0.00    -0.299 N 
ATOM      3  C   LIG    1       -3.319  -5.045   0.614  0.00  0.00    +0.300 C 
ATOM      4  N   LIG    1       -2.107  -4.533   0.907  0.00  0.00    -0.298 N 
ATOM      5  H   LIG    1       -1.341  -5.121   0.998  0.00  0.00    +0.150 HD
ATOM      6  O   LIG    1       -4.279  -4.308   0.499  0.00  0.00    -0.253 OA
ATOM      7  H   LIG    1       -2.700  -6.963   0.539  0.00  0.00    +0.150 HD
BRANCH   4   8
ATOM      8  C   LIG    1       -1.947  -3.088   1.087  0.00  0.00    +0.124 C 
BRANCH   8   9
ATOM      9  C   LIG    1       -0.485  -2.774   1.410  0.00  0.00    +0.123 C 
BRANCH   9  10
ATOM     10  N   LIG    1       -0.325  -1.329   1.591  0.00  0.00    -0.314 N 
ATOM     11  C   LIG    1        0.887  -0.816   1.884  0.00  0.00    +0.210 C 
ATOM     12  C   LIG    1        1.052   0.670   2.070  0.00  0.00    +0.109 C 
ATOM     13  O   LIG    1        1.845  -1.552   1.998  0.00  0.00    -0.276 OA
ATOM     14  H   LIG    1       -1.091  -0.741   1.500  0.00  0.00    +0.149 HD
ENDBRANCH   9  10
ENDBRANCH   8   9
ENDBRANCH   4   8
ENDBRANCH   1   2
BRANCH   1  15
ATOM     15  C   LIG    1       -4.654  -8.435  -0.124  0.00  0.00    +0.014 C 
ATOM     16  C   LIG    1       -4.041  -9.128   1.110  0.00  0.00    +0.013 C 
ATOM     17  C   LIG    1       -5.268  -9.642   1.905  0.00  0.00    +0.001 C 
ATOM     18  C   LIG    1       -6.231 -10.105   0.784  0.00  0.00    +0.001 C 
ATOM     19  C   LIG    1       -6.046  -9.056  -0.332  0.00  0.00    +0.013 C 
BRANCH  15  20
ATOM     20  C   LIG    1       -3.793  -8.682  -1.336  0.00  0.00    -0.002 A 
ATOM     21  C   LIG    1       -3.481  -9.977  -1.712  0.00  0.00    +0.162 A 
ATOM     22  F   LIG    1       -3.953 -11.021  -0.996  0.00  0.00    -0.202 F 
ATOM     23  C   LIG    1       -2.693 -10.203  -2.830  0.00  0.00    +0.159 A 
ATOM     24  F   LIG    1       -2.393 -11.466  -3.202  0.00  0.00    -0.202 F 
ATOM     25  C   LIG    1       -2.211  -9.132  -3.563  0.00  0.00    +0.041 A 
ATOM     26  C   LIG    1       -2.519  -7.839  -3.182  0.00  0.00    +0.003 A 
ATOM     27  C   LIG    1       -3.309  -7.614  -2.070  0.00  0.00    +0.007 A 
ENDBRANCH  15  20
ENDBRANCH   1  15
TORSDOF 6
