REMARK  Name = ZINC000004819545
REMARK                            x       y       z     vdW  Elec       q    Type
REMARK                         _______ _______ _______ _____ _____    ______ ____
ROOT
ATOM      1  S   LIG    1       -4.012  -3.786  -0.294  0.00  0.00    +0.060 S 
ATOM      2  O   LIG    1       -5.337  -3.898   0.208  0.00  0.00    -0.153 OA
ATOM      3  O   LIG    1       -3.678  -4.000  -1.658  0.00  0.00    -0.153 OA
ENDROOT
BRANCH   1   4
ATOM      4  C   LIG    1       -3.030  -4.911   0.642  0.00  0.00    +0.111 A 
ATOM      5  C   LIG    1       -3.388  -5.229   1.938  0.00  0.00    -0.024 A 
ATOM      6  C   LIG    1       -2.618  -6.111   2.672  0.00  0.00    +0.008 A 
ATOM      7  C   LIG    1       -1.488  -6.675   2.109  0.00  0.00    -0.050 A 
ATOM      8  C   LIG    1       -0.647  -7.637   2.909  0.00  0.00    +0.044 C 
ATOM      9  C   LIG    1       -1.129  -6.357   0.812  0.00  0.00    +0.008 A 
ATOM     10  C   LIG    1       -4.620  -4.614   2.552  0.00  0.00    +0.046 C 
ATOM     11  C   LIG    1       -1.903  -5.479   0.077  0.00  0.00    -0.024 A 
ATOM     12  C   LIG    1       -1.512  -5.132  -1.337  0.00  0.00    +0.046 C 
ENDBRANCH   1   4
BRANCH   1  13
ATOM     13  N   LIG    1       -3.498  -2.257   0.080  0.00  0.00    -0.176 NA
ATOM     14  H   LIG    1       -4.105  -1.631   0.504  0.00  0.00    +0.149 HD
BRANCH  13  15
ATOM     15  C   LIG    1       -2.125  -1.850  -0.230  0.00  0.00    +0.185 C 
BRANCH  15  16
ATOM     16  C   LIG    1       -2.092  -1.182  -1.581  0.00  0.00    +0.326 C 
ATOM     17  O   LIG    1       -3.111  -1.059  -2.218  0.00  0.00    -0.249 OA
BRANCH  16  18
ATOM     18  O   LIG    1       -0.931  -0.724  -2.075  0.00  0.00    -0.467 OA
ATOM     19  C   LIG    1       -0.975  -0.092  -3.381  0.00  0.00    +0.280 C 
ENDBRANCH  16  18
ENDBRANCH  15  16
BRANCH  15  20
ATOM     20  C   LIG    1       -1.630  -0.871   0.836  0.00  0.00    +0.034 C 
BRANCH  20  21
ATOM     21  C   LIG    1       -1.510  -1.595   2.178  0.00  0.00    -0.015 C 
ATOM     22  C   LIG    1       -1.144  -0.588   3.270  0.00  0.00    +0.007 C 
ATOM     23  C   LIG    1       -0.420  -2.665   2.084  0.00  0.00    +0.007 C 
ENDBRANCH  20  21
ENDBRANCH  15  20
ENDBRANCH  13  15
ENDBRANCH   1  13
TORSDOF 7
