REMARK  Name = ZINC000095994842
REMARK                            x       y       z     vdW  Elec       q    Type
REMARK                         _______ _______ _______ _____ _____    ______ ____
ROOT
ATOM      1  N   LIG    1        2.429  -1.565   0.223  0.00  0.00    -0.288 N 
ATOM      2  C   LIG    1        3.587  -1.311   0.863  0.00  0.00    +0.300 C 
ATOM      3  N   LIG    1        3.949  -2.059   1.925  0.00  0.00    -0.299 N 
ATOM      4  H   LIG    1        3.375  -2.779   2.228  0.00  0.00    +0.150 HD
ATOM      5  O   LIG    1        4.307  -0.408   0.482  0.00  0.00    -0.253 OA
ATOM      6  H   LIG    1        1.855  -2.286   0.527  0.00  0.00    +0.151 HD
ENDROOT
BRANCH   3   7
ATOM      7  C   LIG    1        5.208  -1.783   2.620  0.00  0.00    +0.111 C 
BRANCH   7   8
ATOM      8  C   LIG    1        5.377  -2.767   3.779  0.00  0.00    +0.029 C 
ATOM      9  C   LIG    1        4.311  -2.501   4.856  0.00  0.00    +0.029 C 
ATOM     10  C   LIG    1        4.706  -3.258   6.140  0.00  0.00    +0.166 C 
ATOM     11  S   LIG    1        6.530  -3.377   6.081  0.00  0.00    -0.031 S 
ATOM     12  O   LIG    1        7.088  -2.561   7.102  0.00  0.00    -0.174 OA
ATOM     13  O   LIG    1        6.910  -4.742   5.979  0.00  0.00    -0.174 OA
ATOM     14  C   LIG    1        6.756  -2.558   4.457  0.00  0.00    +0.171 C 
ENDBRANCH   7   8
ENDBRANCH   3   7
BRANCH   1  15
ATOM     15  C   LIG    1        2.036  -0.753  -0.931  0.00  0.00    +0.179 C 
BRANCH  15  16
ATOM     16  C   LIG    1        2.687  -1.316  -2.196  0.00  0.00    +0.408 C 
ATOM     17  F   LIG    1        4.079  -1.286  -2.057  0.00  0.00    -0.169 F 
ATOM     18  F   LIG    1        2.267  -2.636  -2.390  0.00  0.00    -0.169 F 
ATOM     19  F   LIG    1        2.312  -0.540  -3.298  0.00  0.00    -0.169 F 
ENDBRANCH  15  16
BRANCH  15  20
ATOM     20  C   LIG    1        0.514  -0.786  -1.084  0.00  0.00    +0.037 C 
BRANCH  20  21
ATOM     21  C   LIG    1       -0.133  -0.073   0.105  0.00  0.00    -0.036 C 
ATOM     22  C   LIG    1        0.148  -0.861   1.387  0.00  0.00    +0.010 C 
ATOM     23  C   LIG    1        0.449   1.335   0.235  0.00  0.00    +0.010 C 
ATOM     24  C   LIG    1       -1.645   0.018  -0.116  0.00  0.00    +0.010 C 
ENDBRANCH  20  21
ENDBRANCH  15  20
ENDBRANCH   1  15
TORSDOF 6
