REMARK  Name = ZINC000000958789
REMARK                            x       y       z     vdW  Elec       q    Type
REMARK                         _______ _______ _______ _____ _____    ______ ____
ROOT
ATOM      1  N   LIG    1       -4.065  -4.540  -0.233  0.00  0.00    -0.199 N 
ATOM      2  N   LIG    1       -4.689  -4.848   0.981  0.00  0.00    -0.061 NA
ATOM      3  N   LIG    1       -5.912  -5.231   1.028  0.00  0.00    -0.123 NA
ATOM      4  C   LIG    1       -6.666  -5.358  -0.085  0.00  0.00    +0.138 A 
ATOM      5  S   LIG    1       -8.341  -5.857  -0.276  0.00  0.00    -0.071 S 
ATOM      6  C   LIG    1       -8.276  -5.669  -2.020  0.00  0.00    -0.004 A 
ATOM      7  C   LIG    1       -7.067  -5.259  -2.418  0.00  0.00    -0.023 A 
ATOM      8  C   LIG    1       -6.706  -5.008  -3.876  0.00  0.00    +0.037 C 
ATOM      9  C   LIG    1       -7.996  -4.874  -4.688  0.00  0.00    +0.008 C 
ATOM     10  C   LIG    1       -8.905  -6.069  -4.385  0.00  0.00    -0.009 C 
ATOM     11  C   LIG    1      -10.075  -6.088  -5.371  0.00  0.00    +0.008 C 
ATOM     12  C   LIG    1       -9.441  -5.938  -2.957  0.00  0.00    +0.046 C 
ATOM     13  C   LIG    1       -6.122  -5.071  -1.329  0.00  0.00    +0.079 A 
ATOM     14  C   LIG    1       -4.757  -4.639  -1.386  0.00  0.00    +0.279 A 
ATOM     15  O   LIG    1       -4.231  -4.375  -2.453  0.00  0.00    -0.265 OA
ENDROOT
BRANCH   1  16
ATOM     16  C   LIG    1       -2.666  -4.105  -0.251  0.00  0.00    +0.269 C 
BRANCH  16  17
ATOM     17  C   LIG    1       -2.604  -2.605  -0.122  0.00  0.00    +0.329 C 
ATOM     18  O   LIG    1       -3.625  -1.964  -0.025  0.00  0.00    -0.249 OA
BRANCH  17  19
ATOM     19  O   LIG    1       -1.417  -1.980  -0.114  0.00  0.00    -0.463 OA
BRANCH  19  20
ATOM     20  C   LIG    1       -1.433  -0.534   0.013  0.00  0.00    +0.235 C 
BRANCH  20  21
ATOM     21  C   LIG    1        0.002  -0.004   0.002  0.00  0.00    +0.020 C 
ATOM     22  C   LIG    1        0.742  -0.511   1.242  0.00  0.00    +0.010 C 
ATOM     23  C   LIG    1       -0.019   1.526   0.010  0.00  0.00    +0.010 C 
ENDBRANCH  20  21
ENDBRANCH  19  20
ENDBRANCH  17  19
ENDBRANCH  16  17
ENDBRANCH   1  16
TORSDOF 5
