REMARK  Name = ZINC000012972930
REMARK                            x       y       z     vdW  Elec       q    Type
REMARK                         _______ _______ _______ _____ _____    ______ ____
ROOT
ATOM      1  N   LIG    1        0.029  -2.771  -2.420  0.00  0.00    -0.271 N 
ATOM      2  C   LIG    1        0.148  -4.229  -2.539  0.00  0.00    +0.127 C 
ATOM      3  C   LIG    1       -0.326  -4.565  -3.970  0.00  0.00    +0.101 C 
ATOM      4  C   LIG    1       -0.046  -3.239  -4.715  0.00  0.00    +0.110 C 
ATOM      5  C   LIG    1       -0.082  -2.190  -3.627  0.00  0.00    +0.221 C 
ATOM      6  O   LIG    1       -0.187  -0.996  -3.816  0.00  0.00    -0.275 OA
ENDROOT
BRANCH   1   7
ATOM      7  C   LIG    1        0.025  -2.076  -1.205  0.00  0.00    +0.037 A 
ATOM      8  C   LIG    1        0.025  -2.774  -0.004  0.00  0.00    +0.024 A 
ATOM      9  C   LIG    1        0.022  -2.085   1.193  0.00  0.00    +0.017 A 
ATOM     10  C   LIG    1        0.023  -0.702   1.197  0.00  0.00    +0.021 A 
ATOM     11 BR   LIG    1        0.018   0.237   2.838  0.00  0.00    -0.050 Br
ATOM     12  C   LIG    1        0.016  -0.004   0.002  0.00  0.00    -0.035 A 
ATOM     13  C   LIG    1        0.011   1.503   0.010  0.00  0.00    +0.045 C 
ATOM     14  C   LIG    1        0.020  -0.687  -1.198  0.00  0.00    +0.028 A 
ENDBRANCH   1   7
BRANCH   3  15
ATOM     15  C   LIG    1        0.482  -5.695  -4.555  0.00  0.00    +0.220 C 
ATOM     16  O   LIG    1        1.369  -6.206  -3.904  0.00  0.00    -0.275 OA
ATOM     17  N   LIG    1        0.221  -6.136  -5.801  0.00  0.00    -0.307 N 
ATOM     18  C   LIG    1        1.007  -7.234  -6.369  0.00  0.00    +0.131 C 
ATOM     19  C   LIG    1       -0.850  -5.519  -6.587  0.00  0.00    +0.131 C 
ENDBRANCH   3  15
TORSDOF 2
