REMARK  Name = ZINC000069617791
REMARK                            x       y       z     vdW  Elec       q    Type
REMARK                         _______ _______ _______ _____ _____    ______ ____
ROOT
ATOM      1  N   LIG    1       -2.344  -3.089  -0.053  0.00  0.00    -0.266 N 
ATOM      2  C   LIG    1       -3.001  -3.257  -1.218  0.00  0.00    +0.268 C 
ATOM      3  O   LIG    1       -4.128  -3.714  -1.220  0.00  0.00    -0.268 OA
ENDROOT
BRANCH   1   4
ATOM      4  C   LIG    1       -2.907  -3.552   1.140  0.00  0.00    +0.037 A 
ATOM      5  C   LIG    1       -2.321  -3.230   2.357  0.00  0.00    +0.023 A 
ATOM      6  C   LIG    1       -2.879  -3.688   3.534  0.00  0.00    +0.002 A 
ATOM      7  C   LIG    1       -4.021  -4.468   3.501  0.00  0.00    +0.000 A 
ATOM      8  C   LIG    1       -4.607  -4.791   2.291  0.00  0.00    +0.002 A 
ATOM      9  C   LIG    1       -4.057  -4.330   1.111  0.00  0.00    +0.023 A 
ENDBRANCH   1   4
BRANCH   2  10
ATOM     10  C   LIG    1       -2.354  -2.885  -2.490  0.00  0.00    +0.146 C 
ATOM     11  N   LIG    1       -1.209  -2.303  -2.614  0.00  0.00    -0.084 NA
ATOM     12  O   LIG    1       -0.854  -2.069  -3.963  0.00  0.00    -0.385 OA
ATOM     13  C   LIG    1       -1.682  -2.916  -4.785  0.00  0.00    +0.240 C 
ATOM     14  C   LIG    1       -2.916  -3.129  -3.878  0.00  0.00    +0.116 C 
BRANCH  13  15
ATOM     15  C   LIG    1       -2.062  -2.220  -6.066  0.00  0.00    -0.004 A 
ATOM     16  C   LIG    1       -2.255  -0.852  -6.079  0.00  0.00    +0.007 A 
ATOM     17  C   LIG    1       -2.603  -0.213  -7.254  0.00  0.00    +0.000 A 
ATOM     18  C   LIG    1       -2.759  -0.944  -8.417  0.00  0.00    +0.000 A 
ATOM     19  C   LIG    1       -2.566  -2.312  -8.405  0.00  0.00    +0.000 A 
ATOM     20  C   LIG    1       -2.213  -2.950  -7.231  0.00  0.00    +0.007 A 
ENDBRANCH  13  15
ENDBRANCH   2  10
BRANCH   1  21
ATOM     21  C   LIG    1       -1.040  -2.422  -0.037  0.00  0.00    +0.123 C 
BRANCH  21  22
ATOM     22  C   LIG    1       -1.242  -0.906  -0.002  0.00  0.00    +0.115 C 
BRANCH  22  23
ATOM     23  C   LIG    1        0.099  -0.221   0.015  0.00  0.00    +0.212 C 
ATOM     24  N   LIG    1        0.168   1.125   0.046  0.00  0.00    -0.329 N 
ATOM     25  H   LIG    1        1.032   1.567   0.057  0.00  0.00    +0.145 HD
ATOM     26  H   LIG    1       -0.646   1.652   0.055  0.00  0.00    +0.145 HD
ATOM     27  O   LIG    1        1.117  -0.879  -0.001  0.00  0.00    -0.276 OA
ENDBRANCH  22  23
ENDBRANCH  21  22
ENDBRANCH   1  21
TORSDOF 6
