REMARK  Name = ZINC000012981071
REMARK                            x       y       z     vdW  Elec       q    Type
REMARK                         _______ _______ _______ _____ _____    ______ ____
ROOT
ATOM      1  N   LIG    1        0.091  -2.778  -0.115  0.00  0.00    -0.282 N 
ATOM      2  H   LIG    1       -0.266  -2.353   0.681  0.00  0.00    +0.155 HD
ATOM      3  C   LIG    1        0.049  -4.119  -0.239  0.00  0.00    +0.219 C 
ATOM      4  O   LIG    1        0.584  -4.658  -1.185  0.00  0.00    -0.275 OA
ENDROOT
BRANCH   1   5
ATOM      5  C   LIG    1        0.652  -1.997  -1.134  0.00  0.00    +0.078 A 
ATOM      6  C   LIG    1        1.163  -0.734  -0.845  0.00  0.00    +0.141 A 
ATOM      7  C   LIG    1        1.717   0.034  -1.857  0.00  0.00    +0.050 A 
ATOM      8  C   LIG    1        1.756  -0.453  -3.151  0.00  0.00    +0.036 A 
ATOM      9  C   LIG    1        1.244  -1.704  -3.439  0.00  0.00    +0.128 A 
ATOM     10  C   LIG    1        0.691  -2.476  -2.435  0.00  0.00    +0.059 A 
BRANCH   9  11
ATOM     11  N   LIG    1        1.290  -2.219  -4.826  0.00  0.00    +0.056 N 
ATOM     12  O   LIG    1        0.839  -3.321  -5.082  0.00  0.00    -0.126 OA
ATOM     13  O   LIG    1        1.778  -1.540  -5.712  0.00  0.00    -0.126 OA
ENDBRANCH   9  11
BRANCH   6  14
ATOM     14  O   LIG    1        1.124  -0.257   0.428  0.00  0.00    -0.493 OA
ATOM     15  C   LIG    1        1.667   1.046   0.649  0.00  0.00    +0.277 C 
ENDBRANCH   6  14
ENDBRANCH   1   5
BRANCH   3  16
ATOM     16  C   LIG    1       -0.664  -4.950   0.797  0.00  0.00    +0.115 C 
BRANCH  16  17
ATOM     17  C   LIG    1       -0.564  -6.429   0.421  0.00  0.00    +0.113 C 
BRANCH  17  18
ATOM     18  N   LIG    1       -1.257  -7.237   1.428  0.00  0.00    -0.310 N 
ATOM     19  H   LIG    1       -1.685  -6.806   2.184  0.00  0.00    +0.149 HD
ATOM     20  C   LIG    1       -1.300  -8.578   1.303  0.00  0.00    +0.251 C 
ATOM     21  O   LIG    1       -0.763  -9.119   0.354  0.00  0.00    -0.270 OA
BRANCH  20  22
ATOM     22  C   LIG    1       -1.993  -9.386   2.311  0.00  0.00    +0.074 A 
ATOM     23  S   LIG    1       -2.814  -8.758   3.733  0.00  0.00    -0.092 S 
ATOM     24  C   LIG    1       -3.261 -10.329   4.226  0.00  0.00    +0.046 A 
ATOM     25  C   LIG    1       -2.806 -11.248   3.367  0.00  0.00    +0.008 A 
ATOM     26  C   LIG    1       -2.100 -10.748   2.298  0.00  0.00    +0.021 A 
ENDBRANCH  20  22
ENDBRANCH  17  18
ENDBRANCH  16  17
ENDBRANCH   3  16
TORSDOF 7
