REMARK  Name = ZINC000042325809
REMARK                            x       y       z     vdW  Elec       q    Type
REMARK                         _______ _______ _______ _____ _____    ______ ____
ROOT
ATOM      1  N   LIG    1        0.688  -0.476  -1.203  0.00  0.00    -0.294 N 
ATOM      2  H   LIG    1        1.632  -0.695  -1.170  0.00  0.00    +0.151 HD
ATOM      3  C   LIG    1        0.006  -0.608  -2.358  0.00  0.00    +0.301 C 
ATOM      4  O   LIG    1       -1.178  -0.335  -2.400  0.00  0.00    -0.253 OA
ATOM      5  N   LIG    1        0.637  -1.043  -3.467  0.00  0.00    -0.286 N 
ATOM      6  H   LIG    1        1.582  -1.261  -3.434  0.00  0.00    +0.151 HD
ENDROOT
BRANCH   1   7
ATOM      7  C   LIG    1        0.002  -0.004   0.002  0.00  0.00    +0.100 C 
ATOM      8  C   LIG    1       -0.019   1.526   0.010  0.00  0.00    +0.030 C 
BRANCH   7   9
ATOM      9  C   LIG    1        0.742  -0.511   1.242  0.00  0.00    +0.138 C 
ATOM     10  C   LIG    1       -0.040  -0.120   2.514  0.00  0.00    +0.035 C 
ATOM     11  C   LIG    1        1.101   0.265   3.496  0.00  0.00    +0.031 C 
ATOM     12  C   LIG    1        2.131   0.888   2.521  0.00  0.00    +0.160 C 
ATOM     13  O   LIG    1        2.034   0.102   1.320  0.00  0.00    -0.375 OA
ENDBRANCH   7   9
ENDBRANCH   1   7
BRANCH   5  14
ATOM     14  C   LIG    1       -0.104  -1.186  -4.723  0.00  0.00    +0.171 C 
BRANCH  14  15
ATOM     15  C   LIG    1       -0.781  -2.531  -4.756  0.00  0.00    +0.134 A 
ATOM     16  N   LIG    1       -0.235  -3.667  -4.416  0.00  0.00    -0.238 NA
ATOM     17  C   LIG    1       -1.131  -4.653  -4.571  0.00  0.00    +0.130 A 
ATOM     18  C   LIG    1       -2.276  -4.108  -5.025  0.00  0.00    +0.106 A 
ATOM     19  N   LIG    1       -2.056  -2.762  -5.137  0.00  0.00    -0.336 N 
ATOM     20  C   LIG    1       -3.022  -1.759  -5.594  0.00  0.00    +0.150 C 
ENDBRANCH  14  15
BRANCH  14  21
ATOM     21  C   LIG    1        0.850  -1.075  -5.885  0.00  0.00    -0.020 A 
ATOM     22  C   LIG    1        2.095  -1.671  -5.816  0.00  0.00    +0.006 A 
ATOM     23  C   LIG    1        2.970  -1.570  -6.881  0.00  0.00    +0.000 A 
ATOM     24  C   LIG    1        2.600  -0.873  -8.015  0.00  0.00    +0.000 A 
ATOM     25  C   LIG    1        1.354  -0.277  -8.085  0.00  0.00    +0.000 A 
ATOM     26  C   LIG    1        0.477  -0.382  -7.021  0.00  0.00    +0.006 A 
ENDBRANCH  14  21
ENDBRANCH   5  14
TORSDOF 5
