REMARK  Name = ZINC000025875615
REMARK                            x       y       z     vdW  Elec       q    Type
REMARK                         _______ _______ _______ _____ _____    ______ ____
ROOT
ATOM      1  N   LIG    1        2.911  -5.270  -0.044  0.00  0.00    -0.137 N 
ATOM      2  C   LIG    1        2.932  -6.083   1.018  0.00  0.00    +0.327 C 
ATOM      3  O   LIG    1        2.489  -5.781   2.109  0.00  0.00    -0.251 OA
ATOM      4  N   LIG    1        3.497  -7.273   0.745  0.00  0.00    -0.280 N 
ATOM      5  H   LIG    1        3.619  -8.012   1.360  0.00  0.00    +0.152 HD
ATOM      6  C   LIG    1        3.896  -7.233  -0.673  0.00  0.00    +0.137 C 
ATOM      7  C   LIG    1        3.162  -8.314  -1.469  0.00  0.00    +0.047 C 
ATOM      8  C   LIG    1        3.460  -5.854  -1.127  0.00  0.00    +0.267 C 
ATOM      9  O   LIG    1        3.586  -5.374  -2.233  0.00  0.00    -0.271 OA
ENDROOT
BRANCH   6  10
ATOM     10  C   LIG    1        5.388  -7.397  -0.809  0.00  0.00    -0.015 A 
ATOM     11  C   LIG    1        6.085  -8.163   0.106  0.00  0.00    +0.006 A 
ATOM     12  C   LIG    1        7.453  -8.317  -0.021  0.00  0.00    +0.000 A 
ATOM     13  C   LIG    1        8.125  -7.698  -1.058  0.00  0.00    +0.000 A 
ATOM     14  C   LIG    1        7.428  -6.928  -1.971  0.00  0.00    +0.000 A 
ATOM     15  C   LIG    1        6.060  -6.777  -1.846  0.00  0.00    +0.006 A 
ENDBRANCH   6  10
BRANCH   1  16
ATOM     16  N   LIG    1        2.378  -3.975  -0.033  0.00  0.00    -0.219 N 
ATOM     17  C   LIG    1        1.042  -3.796  -0.026  0.00  0.00    +0.267 C 
ATOM     18  O   LIG    1        0.299  -4.759  -0.028  0.00  0.00    -0.268 OA
ATOM     19  H   LIG    1        2.970  -3.207  -0.031  0.00  0.00    +0.174 HD
BRANCH  17  20
ATOM     20  C   LIG    1        0.484  -2.440  -0.014  0.00  0.00    +0.076 A 
ATOM     21  C   LIG    1       -0.847  -2.130  -0.006  0.00  0.00    +0.021 A 
ATOM     22  C   LIG    1       -1.090  -0.777   0.003  0.00  0.00    +0.011 A 
ATOM     23  C   LIG    1        0.002  -0.004   0.002  0.00  0.00    -0.013 A 
ATOM     24  C   LIG    1       -0.018   1.503   0.010  0.00  0.00    +0.051 C 
ATOM     25  S   LIG    1        1.421  -0.952  -0.017  0.00  0.00    -0.089 S 
ENDBRANCH  17  20
ENDBRANCH   1  16
TORSDOF 3
