REMARK  3 active torsions:
REMARK  status: ('A' for Active; 'I' for Inactive)
REMARK    1  A    between atoms: C3_3  and  C7_8 
REMARK    2  A    between atoms: C9_11  and  C10_12 
REMARK    3  A    between atoms: C14_16  and  N2_18 
ROOT
ATOM      1  C7  <0> d          -2.502   1.004   0.072  0.00  0.00     0.184 A 
ATOM      2  N1  <0> d          -3.681   1.562   0.071  0.00  0.00    -0.218 NA
ATOM      3  C8  <0> d          -4.636   0.588   0.047  0.00  0.00     0.136 A 
ATOM      4  C9  <0> d          -6.003   0.758   0.035  0.00  0.00     0.049 C 
ATOM      5  C16 <0> d          -3.894  -0.688   0.043  0.00  0.00     0.318 A 
ATOM      6  O3  <0> d          -4.359  -1.813   0.028  0.00  0.00    -0.257 OA
ATOM      7  O4  <0> d          -2.590  -0.340   0.060  0.00  0.00    -0.254 OA
ENDROOT
BRANCH   4   8
ATOM      8  C10 <0> d          -6.574   2.103   0.155  0.00  0.00    -0.031 A 
ATOM      9  C15 <0> d          -7.961   2.272   0.268  0.00  0.00     0.049 A 
ATOM     10  C14 <0> d          -8.490   3.539   0.380  0.00  0.00     0.121 A 
ATOM     11  C13 <0> d          -7.655   4.645   0.381  0.00  0.00     0.044 A 
ATOM     12  C12 <0> d          -6.283   4.487   0.269  0.00  0.00     0.022 A 
ATOM     13 Br2  <0> d          -8.392   6.380   0.534  0.00  0.00    -0.048 Br
ATOM     14  C11 <0> d          -5.737   3.227   0.162  0.00  0.00     0.013 A 
BRANCH  10  15
ATOM     15  N2  <0> d          -9.954   3.720   0.500  0.00  0.00    -0.114 N 
ATOM     16  O1  <0> d         -10.689   2.749   0.500  0.00  0.00    -0.532 OA
ATOM     17  O2  <0> d         -10.423   4.840   0.600  0.00  0.00    -0.532 OA
ENDBRANCH  10  15
ENDBRANCH   4   8
BRANCH   1  18
ATOM     18  C3  <0> d          -1.230   1.753   0.092  0.00  0.00     0.018 A 
ATOM     19  C2  <0> d          -1.238   3.149   0.109  0.00  0.00     0.016 A 
ATOM     20  C1  <0> d          -0.045   3.843   0.122  0.00  0.00     0.002 A 
ATOM     21  C6  <0> d           1.157   3.159   0.123  0.00  0.00     0.019 A 
ATOM     22  C5  <0> d           1.173   1.774   0.111  0.00  0.00     0.012 A 
ATOM     23  C4  <0> d          -0.012   1.068   0.098  0.00  0.00     0.035 A 
ATOM     24 Br1  <0> d           2.822   0.849   0.112  0.00  0.00    -0.051 Br
ENDBRANCH   1  18
TORSDOF 3
