REMARK  4 active torsions:
REMARK  status: ('A' for Active; 'I' for Inactive)
REMARK    1  A    between atoms: N2_4  and  C12_19 
REMARK    2  A    between atoms: C4_7  and  N3_8 
REMARK    3  A    between atoms: N4_9  and  C5_10 
REMARK    4  A    between atoms: C10_15  and  O2_16 
ROOT
ATOM      1  C1  <0> d          -2.338  -0.348   1.298  0.00  0.00     0.070 C 
ATOM      2  C2  <0> d          -1.401  -0.557   0.136  0.00  0.00     0.065 A 
ATOM      3  N1  <0> d          -1.643  -1.232  -0.919  0.00  0.00    -0.171 NA
ATOM      4  N2  <0> d          -0.580  -1.241  -1.818  0.00  0.00    -0.199 N 
ATOM      5  C3  <0> d           0.462  -0.524  -1.347  0.00  0.00     0.277 A 
ATOM      6  O1  <0> d           1.532  -0.336  -1.885  0.00  0.00    -0.268 OA
ATOM      7  C4  <0> d           0.002  -0.004   0.002  0.00  0.00     0.273 A 
ENDROOT
BRANCH   7   8
ATOM      8  N3  <0> d          -0.018   1.461   0.010  0.00  0.00    -0.171 NA
ATOM      9  N4  <0> d           1.048   2.095   0.003  0.00  0.00    -0.152 NA
BRANCH   9  10
ATOM     10  C5  <0> d           1.029   3.462   0.011  0.00  0.00     0.112 A 
ATOM     11  C10 <0> d           2.231   4.184   0.003  0.00  0.00     0.100 A 
ATOM     12  C9  <0> d           2.201   5.569   0.011  0.00  0.00     0.063 A 
ATOM     13  C8  <0> d           0.990   6.236   0.026  0.00  0.00     0.036 A 
ATOM     14  C7  <0> d          -0.201   5.526   0.034  0.00  0.00     0.026 A 
ATOM     15 Cl1  <0> d           0.961   7.972   0.036  0.00  0.00    -0.084 Cl
ATOM     16  C6  <0> d          -0.188   4.148   0.020  0.00  0.00     0.038 A 
BRANCH  11  17
ATOM     17  O2  <0> d           3.419   3.527  -0.011  0.00  0.00    -0.353 OA
ATOM     18  C11 <0> d           4.603   4.329  -0.018  0.00  0.00     0.210 C 
ENDBRANCH  11  17
ENDBRANCH   9  10
ENDBRANCH   7   8
BRANCH   4  19
ATOM     19  C12 <0> d          -0.590  -1.908  -3.049  0.00  0.00     0.061 A 
ATOM     20  C17 <0> d          -1.714  -2.620  -3.445  0.00  0.00     0.032 A 
ATOM     21  C16 <0> d          -1.721  -3.276  -4.661  0.00  0.00     0.002 A 
ATOM     22  C15 <0> d          -0.610  -3.224  -5.482  0.00  0.00     0.000 A 
ATOM     23  C14 <0> d           0.510  -2.515  -5.091  0.00  0.00     0.002 A 
ATOM     24  C13 <0> d           0.522  -1.852  -3.879  0.00  0.00     0.032 A 
ENDBRANCH   4  19
TORSDOF 4
