REMARK  0 active torsions:
REMARK  status: ('A' for Active; 'I' for Inactive)
ROOT
ATOM      1  C1  <0> d           1.716   3.903  -2.298  0.00  0.00     0.042 C 
ATOM      2  C2  <0> d           2.603   2.695  -2.257  0.00  0.00     0.036 A 
ATOM      3  C3  <0> d           3.225   2.355  -0.895  0.00  0.00     0.036 A 
ATOM      4  C4  <0> d           4.067   2.394  -2.111  0.00  0.00     0.122 A 
ATOM      5 Cl1  <0> d           5.197   3.787  -2.288  0.00  0.00    -0.101 Cl
ATOM      6 Cl2  <0> d           4.679   0.819  -2.739  0.00  0.00    -0.101 Cl
ATOM      7  C5  <0> d           2.544   1.252  -0.105  0.00  0.00     0.042 C 
ATOM      8  C6  <0> d           1.111   1.740   0.001  0.00  0.00    -0.075 C 
ATOM      9  C7  <0> d          -0.013   1.076   0.008  0.00  0.00     0.003 C 
ATOM     10  C8  <0> d          -1.292   1.786   0.018  0.00  0.00     0.000 C 
ATOM     11  C9  <0> d          -1.589   2.885  -0.668  0.00  0.00     0.000 C 
ATOM     12  C10 <0> d          -0.672   3.524  -1.606  0.00  0.00     0.003 C 
ATOM     13  C11 <0> d           0.610   3.606  -1.329  0.00  0.00    -0.075 C 
ATOM     14  C12 <0> d           0.999   3.276   0.116  0.00  0.00     0.068 C 
ENDROOT
TORSDOF 0
