REMARK  3 active torsions:
REMARK  status: ('A' for Active; 'I' for Inactive)
REMARK    1  A    between atoms: C2_2  and  N1_4 
REMARK    2  A    between atoms: C6_8  and  C7_9 
REMARK    3  A    between atoms: C10_12  and  C11_14 
ROOT
ATOM      1  C7  <0> d           5.162  -2.343  -0.311  0.00  0.00     0.077 A 
ATOM      2  C8  <0> d           5.861  -1.150  -0.352  0.00  0.00     0.040 A 
ATOM      3  C9  <0> d           4.927  -0.144  -0.616  0.00  0.00     0.041 A 
ATOM      4  C10 <0> d           3.698  -0.755  -0.727  0.00  0.00     0.086 A 
ATOM      5  O2  <0> d           3.858  -2.077  -0.534  0.00  0.00    -0.310 OA
ENDROOT
BRANCH   1   6
ATOM      6  C6  <0> d           5.717  -3.618  -0.070  0.00  0.00     0.061 C 
ATOM      7  C5  <0> d           4.902  -4.708   0.035  0.00  0.00     0.081 A 
ATOM      8  C4  <0> d           3.476  -4.777   0.069  0.00  0.00     0.268 A 
ATOM      9  S1  <0> d           5.330  -6.440   0.159  0.00  0.00    -0.023 SA
ATOM     10  N1  <0> d           2.915  -5.968   0.177  0.00  0.00    -0.270 N 
ATOM     11  O1  <0> d           2.798  -3.767  -0.000  0.00  0.00    -0.266 OA
ATOM     12  C17 <0> d           3.668  -7.088   0.254  0.00  0.00     0.294 A 
ATOM     13  O3  <0> d           3.305  -8.245   0.356  0.00  0.00    -0.259 OA
BRANCH  10  14
ATOM     14  C2  <0> d           1.454  -6.077   0.215  0.00  0.00     0.088 C 
ATOM     15  C1  <0> d           0.976  -6.933  -0.959  0.00  0.00     0.032 C 
ATOM     16  C3  <0> d           1.025  -6.730   1.531  0.00  0.00     0.032 C 
ENDBRANCH  10  14
ENDBRANCH   1   6
BRANCH   4  17
ATOM     17  C11 <0> d           2.419  -0.073  -1.003  0.00  0.00    -0.001 A 
ATOM     18  C16 <0> d           2.386   1.312  -1.178  0.00  0.00     0.039 A 
ATOM     19  C15 <0> d           1.186   1.943  -1.436  0.00  0.00     0.052 A 
ATOM     20  C14 <0> d           0.016   1.205  -1.522  0.00  0.00     0.032 A 
ATOM     21 Cl1  <0> d           1.142   3.665  -1.655  0.00  0.00    -0.083 Cl
ATOM     22  C13 <0> d           0.043  -0.168  -1.349  0.00  0.00     0.022 A 
ATOM     23 Br1  <0> d          -1.622   2.077  -1.884  0.00  0.00    -0.049 Br
ATOM     24  C12 <0> d           1.236  -0.811  -1.091  0.00  0.00     0.016 A 
ENDBRANCH   4  17
TORSDOF 3
