REMARK  2 active torsions:
REMARK  status: ('A' for Active; 'I' for Inactive)
REMARK    1  A    between atoms: N2_13  and  N3_14 
REMARK       I    between atoms: N3_14  and  C10_15 
REMARK    2  A    between atoms: C10_15  and  C11_17 
ROOT
ATOM      1  C1  <0> d          -0.018   1.503   0.010  0.00  0.00     0.049 C 
ATOM      2  C2  <0> d           0.002  -0.004   0.002  0.00  0.00    -0.044 A 
ATOM      3  C3  <0> d           0.006  -0.687  -1.198  0.00  0.00     0.024 A 
ATOM      4  C4  <0> d           0.025  -2.077  -1.200  0.00  0.00     0.027 A 
ATOM      5  C5  <0> d           0.040  -2.788   0.007  0.00  0.00     0.049 A 
ATOM      6  C6  <0> d           0.035  -2.084   1.206  0.00  0.00     0.050 A 
ATOM      7  C7  <0> d           0.023  -0.702   1.198  0.00  0.00     0.019 A 
ATOM      8 Br1  <0> d           0.026   0.244   2.836  0.00  0.00    -0.051 Br
ATOM      9  N1  <0> d           0.058  -4.152  -0.263  0.00  0.00    -0.321 N 
ATOM     10  C8  <0> d           0.055  -4.392  -1.585  0.00  0.00     0.277 A 
ATOM     11  O1  <0> d           0.067  -5.487  -2.114  0.00  0.00    -0.266 OA
ATOM     12  C9  <0> d           0.034  -3.090  -2.282  0.00  0.00     0.157 A 
ATOM     13  N2  <0> d           0.024  -2.876  -3.575  0.00  0.00    -0.166 NA
ATOM     14  H6  <0> d           0.070  -4.843   0.418  0.00  0.00     0.169 HD
ENDROOT
BRANCH  13  15
ATOM     15  N3  <0> d           0.035  -3.959  -4.464  0.00  0.00    -0.242 N 
ATOM     16  C10 <0> d           0.026  -3.740  -5.794  0.00  0.00     0.271 C 
ATOM     17  O2  <0> d           0.007  -2.603  -6.222  0.00  0.00    -0.266 OA
ATOM     18  H7  <0> d           0.050  -4.867  -4.122  0.00  0.00     0.192 HD
BRANCH  16  19
ATOM     19  C11 <0> d           0.037  -4.882  -6.731  0.00  0.00     0.035 A 
ATOM     20  C16 <0> d           0.027  -4.659  -8.109  0.00  0.00     0.035 A 
ATOM     21  C15 <0> d           0.044  -5.730  -8.979  0.00  0.00     0.007 A 
ATOM     22  C14 <0> d           0.059  -7.024  -8.487  0.00  0.00     0.018 A 
ATOM     23  I1  <0> d           0.038  -5.398 -11.047  0.00  0.00    -0.045 I 
ATOM     24  C13 <0> d           0.063  -7.252  -7.122  0.00  0.00     0.002 A 
ATOM     25  C12 <0> d           0.053  -6.190  -6.242  0.00  0.00     0.017 A 
ENDBRANCH  16  19
ENDBRANCH  13  15
TORSDOF 2
