REMARK  4 active torsions:
REMARK  status: ('A' for Active; 'I' for Inactive)
REMARK    1  A    between atoms: C4_4  and  C7_7 
REMARK    2  A    between atoms: C7_7  and  C8_8 
REMARK    3  A    between atoms: N1_11  and  S1_12 
REMARK    4  A    between atoms: S1_12  and  C11_15 
ROOT
ATOM      1  C8  <0> d           0.115  -3.174  -2.359  0.00  0.00     0.093 A 
ATOM      2  C9  <0> d           1.810  -3.579  -3.798  0.00  0.00     0.142 A 
ATOM      3  C10 <0> d           2.414  -3.157  -2.443  0.00  0.00     0.162 A 
ATOM      4  N1  <0> d           1.224  -2.922  -1.607  0.00  0.00    -0.259 N 
ATOM      5  N2  <0> d           0.356  -3.533  -3.569  0.00  0.00    -0.377 N 
ATOM      6  H16 <0> d          -0.359  -3.754  -4.272  0.00  0.00     0.160 HD
ENDROOT
BRANCH   4   7
ATOM      7  S1  <0> d           1.232  -2.441  -0.022  0.00  0.00     0.266 S 
ATOM      8  O1  <0> d           2.487  -2.833   0.515  0.00  0.00    -0.200 OA
ATOM      9  O2  <0> d          -0.003  -2.867   0.537  0.00  0.00    -0.200 OA
BRANCH   7  10
ATOM     10  C11 <0> d           1.208  -0.679  -0.013  0.00  0.00     0.080 A 
ATOM     11  C16 <0> d           2.396   0.028  -0.020  0.00  0.00     0.026 A 
ATOM     12  C15 <0> d           2.378   1.410  -0.013  0.00  0.00     0.020 A 
ATOM     13  C14 <0> d           1.172   2.086   0.002  0.00  0.00     0.006 A 
ATOM     14  C13 <0> d          -0.017   1.378   0.010  0.00  0.00     0.020 A 
ATOM     15  I1  <0> d           1.144   4.180   0.014  0.00  0.00    -0.045 I 
ATOM     16  C12 <0> d           0.002  -0.004   0.002  0.00  0.00     0.026 A 
ENDBRANCH   7  10
ENDBRANCH   4   7
BRANCH   1  17
ATOM     17  C7  <0> d          -1.284  -3.039  -1.816  0.00  0.00     0.115 C 
BRANCH  17  18
ATOM     18  C4  <0> d          -2.277  -3.387  -2.895  0.00  0.00    -0.051 A 
ATOM     19  C3  <0> d          -2.708  -4.693  -3.042  0.00  0.00     0.007 A 
ATOM     20  C2  <0> d          -3.619  -5.012  -4.032  0.00  0.00     0.001 A 
ATOM     21  C1  <0> d          -4.098  -4.027  -4.874  0.00  0.00     0.000 A 
ATOM     22  C6  <0> d          -3.667  -2.722  -4.727  0.00  0.00     0.001 A 
ATOM     23  C5  <0> d          -2.761  -2.401  -3.735  0.00  0.00     0.007 A 
ENDBRANCH  17  18
ENDBRANCH   1  17
TORSDOF 4
