REMARK  0 active torsions:
REMARK  status: ('A' for Active; 'I' for Inactive)
ROOT
ATOM      1  C1  <0> d          -0.018   1.503   0.010  0.00  0.00     0.048 C 
ATOM      2  C2  <0> d           0.002  -0.004   0.002  0.00  0.00    -0.060 A 
ATOM      3  C3  <0> d           0.006  -0.682  -1.215  0.00  0.00     0.007 A 
ATOM      4  C4  <0> d           0.023  -2.044  -1.254  0.00  0.00     0.014 A 
ATOM      5  C5  <0> d           0.036  -2.772  -0.055  0.00  0.00    -0.007 A 
ATOM      6  C6  <0> d           0.045  -4.182  -0.050  0.00  0.00     0.025 A 
ATOM      7  C7  <0> d           0.060  -4.819   1.149  0.00  0.00    -0.002 A 
ATOM      8  C8  <0> d           0.072  -4.095   2.350  0.00  0.00     0.171 A 
ATOM      9  N1  <0> d           0.056  -2.772   2.330  0.00  0.00    -0.224 NA
ATOM     10  C9  <0> d           0.037  -2.086   1.184  0.00  0.00     0.070 A 
ATOM     11  C10 <0> d           0.022  -0.680   1.183  0.00  0.00     0.039 A 
ATOM     12  O1  <0> d           0.114  -4.936   3.419  0.00  0.00    -0.334 OA
ATOM     13  C11 <0> d          -0.322  -6.244   3.015  0.00  0.00     0.182 C 
ATOM     14  C12 <0> d           0.062  -6.290   1.517  0.00  0.00     0.070 C 
ENDROOT
TORSDOF 0
