REMARK  4 active torsions:
REMARK  status: ('A' for Active; 'I' for Inactive)
REMARK    1  A    between atoms: C7_7  and  C8_8 
REMARK    2  A    between atoms: C9_9  and  C10_10 
REMARK    3  A    between atoms: C10_10  and  C11_12 
REMARK    4  A    between atoms: C17_19  and  O3_20 
ROOT
ATOM      1  C11 <0> d          -1.292   6.417  -0.065  0.00  0.00     0.052 A 
ATOM      2  C12 <0> d          -2.451   5.626  -0.049  0.00  0.00     0.037 A 
ATOM      3  C13 <0> d          -3.770   6.015  -0.117  0.00  0.00     0.013 A 
ATOM      4  C14 <0> d          -4.314   7.292  -0.229  0.00  0.00     0.042 A 
ATOM      5  C15 <0> d          -3.673   8.510  -0.299  0.00  0.00     0.065 A 
ATOM      6  C16 <0> d          -2.290   8.773  -0.273  0.00  0.00     0.223 A 
ATOM      7  O2  <0> d          -1.964   9.949  -0.349  0.00  0.00    -0.284 OA
ATOM      8  C17 <0> d          -1.196   7.806  -0.165  0.00  0.00     0.131 A 
ATOM      9 Br1  <0> d          -4.796  10.024  -0.447  0.00  0.00    -0.047 Br
ATOM     10 Br2  <0> d          -5.029   4.606  -0.054  0.00  0.00    -0.051 Br
ENDROOT
BRANCH   1  11
ATOM     11  C10 <0> d          -0.009   5.686   0.031  0.00  0.00     0.185 C 
ATOM     12  O1  <0> d           1.037   6.301   0.130  0.00  0.00    -0.287 OA
BRANCH  11  13
ATOM     13  C9  <0> d           0.003   4.224   0.008  0.00  0.00     0.056 C 
ATOM     14  C8  <0> d           1.179   3.558  -0.007  0.00  0.00     0.016 C 
BRANCH  14  15
ATOM     15  C7  <0> d           1.191   2.088  -0.030  0.00  0.00    -0.030 A 
ATOM     16  C2  <0> d           2.406   1.395  -0.047  0.00  0.00    -0.052 A 
ATOM     17  C1  <0> d           3.709   2.153  -0.041  0.00  0.00     0.049 C 
ATOM     18  C3  <0> d           2.409   0.016  -0.069  0.00  0.00     0.007 A 
ATOM     19  C4  <0> d           1.214  -0.682  -0.075  0.00  0.00     0.001 A 
ATOM     20  C5  <0> d           0.007  -0.003  -0.059  0.00  0.00     0.001 A 
ATOM     21  C6  <0> d          -0.013   1.375  -0.037  0.00  0.00     0.012 A 
ENDBRANCH  14  15
ENDBRANCH  11  13
ENDBRANCH   1  11
BRANCH   8  22
ATOM     22  O3  <0> d           0.055   8.319  -0.162  0.00  0.00    -0.356 OA
ATOM     23  H12 <0> d           0.448   8.403  -1.042  0.00  0.00     0.218 HD
ENDBRANCH   8  22
TORSDOF 4
