REMARK  5 active torsions:
REMARK  status: ('A' for Active; 'I' for Inactive)
REMARK    1  A    between atoms: C2_2  and  N1_3 
REMARK    2  A    between atoms: C5_7  and  C6_8 
REMARK    3  A    between atoms: C8_10  and  O3_17 
REMARK    4  A    between atoms: C9_11  and  O2_16 
REMARK    5  A    between atoms: O3_17  and  C12_18 
ROOT
ATOM      1  C6  <0> d           1.320  -1.965   0.214  0.00  0.00    -0.013 A 
ATOM      2  C7  <0> d           1.474  -0.625   0.591  0.00  0.00     0.052 A 
ATOM      3  C8  <0> d           0.359   0.155   0.826  0.00  0.00     0.104 A 
ATOM      4  C9  <0> d          -0.917  -0.392   0.693  0.00  0.00     0.118 A 
ATOM      5  C10 <0> d          -1.073  -1.719   0.313  0.00  0.00     0.065 A 
ATOM      6  C11 <0> d           0.035  -2.506   0.077  0.00  0.00     0.041 A 
ATOM      7 Br1  <0> d          -0.180  -4.314  -0.433  0.00  0.00    -0.049 Br
ATOM      8 Br2  <0> d          -2.807  -2.450   0.128  0.00  0.00    -0.047 Br
ENDROOT
BRANCH   1   9
ATOM      9  C5  <0> d           2.501  -2.800  -0.036  0.00  0.00     0.037 C 
ATOM     10  C4  <0> d           3.560  -2.291  -0.718  0.00  0.00     0.079 A 
ATOM     11  C3  <0> d           3.691  -1.004  -1.428  0.00  0.00     0.268 A 
ATOM     12  S1  <0> d           5.175  -3.000  -1.008  0.00  0.00    -0.023 SA
ATOM     13  N1  <0> d           4.854  -0.764  -2.010  0.00  0.00    -0.275 N 
ATOM     14  O1  <0> d           2.776  -0.203  -1.474  0.00  0.00    -0.266 OA
ATOM     15  C14 <0> d           5.863  -1.657  -1.963  0.00  0.00     0.293 A 
ATOM     16  O4  <0> d           6.973  -1.569  -2.452  0.00  0.00    -0.259 OA
BRANCH  13  17
ATOM     17  C2  <0> d           5.048   0.499  -2.726  0.00  0.00     0.132 C 
ATOM     18  C1  <0> d           4.630   0.326  -4.188  0.00  0.00     0.027 C 
ENDBRANCH  13  17
ENDBRANCH   1   9
BRANCH   3  19
ATOM     19  O3  <0> d           0.505   1.457   1.192  0.00  0.00    -0.349 OA
BRANCH  19  20
ATOM     20  C12 <0> d           1.841   1.950   1.315  0.00  0.00     0.171 C 
ATOM     21  C13 <0> d           1.805   3.421   1.732  0.00  0.00     0.034 C 
ENDBRANCH  19  20
ENDBRANCH   3  19
BRANCH   4  22
ATOM     22  O2  <0> d          -2.011   0.377   0.930  0.00  0.00    -0.357 OA
ATOM     23  H8  <0> d          -2.343   0.841   0.149  0.00  0.00     0.218 HD
ENDBRANCH   4  22
TORSDOF 5
