REMARK  3 active torsions:
REMARK  status: ('A' for Active; 'I' for Inactive)
REMARK    1  A    between atoms: N2_12  and  C10_13 
REMARK    2  A    between atoms: C13_16  and  N4_22 
REMARK    3  A    between atoms: C15_18  and  N3_19 
ROOT
ATOM      1  C1  <0> d           2.232   3.829  -2.460  0.00  0.00     0.092 C 
ATOM      2  C2  <0> d           2.927   4.237  -1.186  0.00  0.00     0.110 A 
ATOM      3  N1  <0> d           4.035   4.906  -1.275  0.00  0.00    -0.234 NA
ATOM      4  C3  <0> d           4.718   5.302  -0.172  0.00  0.00     0.074 A 
ATOM      5  C4  <0> d           5.914   6.017  -0.268  0.00  0.00     0.034 A 
ATOM      6  C5  <0> d           6.574   6.399   0.878  0.00  0.00     0.020 A 
ATOM      7  C6  <0> d           6.067   6.082   2.131  0.00  0.00     0.007 A 
ATOM      8  C7  <0> d           4.888   5.377   2.252  0.00  0.00     0.037 A 
ATOM      9  C8  <0> d           4.205   4.981   1.104  0.00  0.00     0.063 A 
ATOM     10  C9  <0> d           2.944   4.227   1.172  0.00  0.00     0.266 A 
ATOM     11  O1  <0> d           2.448   3.919   2.240  0.00  0.00    -0.267 OA
ATOM     12  N2  <0> d           2.357   3.889   0.000  0.00  0.00    -0.263 N 
ATOM     13  I1  <0> d           7.100   6.679   3.853  0.00  0.00    -0.045 I 
ENDROOT
BRANCH  12  14
ATOM     14  C10 <0> d           1.155   3.170   0.008  0.00  0.00     0.077 A 
ATOM     15  C15 <0> d           1.175   1.782   0.000  0.00  0.00     0.132 A 
ATOM     16  C14 <0> d          -0.013   1.076   0.008  0.00  0.00     0.074 A 
ATOM     17  C13 <0> d          -1.220   1.750   0.017  0.00  0.00     0.105 A 
ATOM     18  C12 <0> d          -1.242   3.133   0.031  0.00  0.00     0.038 A 
ATOM     19  C11 <0> d          -0.059   3.845   0.023  0.00  0.00     0.035 A 
BRANCH  15  20
ATOM     20  N3  <0> d           2.466   1.059  -0.016  0.00  0.00    -0.113 N 
ATOM     21  O2  <0> d           2.483  -0.158  -0.023  0.00  0.00    -0.532 OA
ATOM     22  O3  <0> d           3.513   1.683  -0.023  0.00  0.00    -0.532 OA
ENDBRANCH  15  20
BRANCH  17  23
ATOM     23  N4  <0> d          -2.490   0.990   0.019  0.00  0.00    -0.116 N 
ATOM     24  O4  <0> d          -2.471  -0.228   0.012  0.00  0.00    -0.532 OA
ATOM     25  O5  <0> d          -3.554   1.583   0.027  0.00  0.00    -0.532 OA
ENDBRANCH  17  23
ENDBRANCH  12  14
TORSDOF 3
