REMARK  3 active torsions:
REMARK  status: ('A' for Active; 'I' for Inactive)
REMARK    1  A    between atoms: C6_6  and  C7_7 
REMARK    2  A    between atoms: C9_9  and  C14_19 
REMARK    3  A    between atoms: C12_14  and  C13_16 
ROOT
ATOM      1  C7  <0> d          -2.308  -0.085   0.024  0.00  0.00     0.071 A 
ATOM      2  C8  <0> d          -2.363   1.328   0.032  0.00  0.00     0.069 A 
ATOM      3  C9  <0> d          -1.212   2.036   0.030  0.00  0.00     0.146 A 
ATOM      4  N1  <0> d          -0.017   1.369   0.010  0.00  0.00    -0.208 N 
ATOM      5  C10 <0> d           0.002  -0.004   0.002  0.00  0.00     0.176 A 
ATOM      6  N2  <0> d          -1.141  -0.702   0.009  0.00  0.00    -0.227 NA
ATOM      7  C11 <0> d           1.334  -0.395  -0.013  0.00  0.00     0.119 A 
ATOM      8  C12 <0> d           2.115   0.766  -0.014  0.00  0.00     0.179 A 
ATOM      9  N3  <0> d           1.310   1.818  -0.001  0.00  0.00    -0.157 NA
ATOM     10 Cl1  <0> d           1.923  -2.028  -0.027  0.00  0.00    -0.077 Cl
ENDROOT
BRANCH   1  11
ATOM     11  C6  <0> d          -3.562  -0.875   0.031  0.00  0.00    -0.007 A 
ATOM     12  C1  <0> d          -4.797  -0.227   0.052  0.00  0.00     0.015 A 
ATOM     13  C2  <0> d          -5.961  -0.967   0.055  0.00  0.00     0.020 A 
ATOM     14  C3  <0> d          -5.905  -2.350   0.047  0.00  0.00     0.011 A 
ATOM     15  C4  <0> d          -4.682  -2.998   0.031  0.00  0.00     0.020 A 
ATOM     16 Br1  <0> d          -7.505  -3.357   0.057  0.00  0.00    -0.051 Br
ATOM     17  C5  <0> d          -3.511  -2.269   0.023  0.00  0.00     0.015 A 
ENDBRANCH   1  11
BRANCH   3  18
ATOM     18  C14 <0> d          -1.244   3.542   0.038  0.00  0.00     0.434 C 
ATOM     19  F1  <0> d          -1.273   4.016  -1.278  0.00  0.00    -0.165 F 
ATOM     20  F2  <0> d          -2.387   3.981   0.716  0.00  0.00    -0.165 F 
ATOM     21  F3  <0> d          -0.103   4.030   0.685  0.00  0.00    -0.165 F 
ENDBRANCH   3  18
BRANCH   8  22
ATOM     22  C13 <0> d           3.591   0.811  -0.029  0.00  0.00     0.232 C 
ATOM     23  O1  <0> d           4.231  -0.221  -0.041  0.00  0.00    -0.643 OA
ATOM     24  O2  <0> d           4.229   1.998  -0.028  0.00  0.00    -0.643 OA
ENDBRANCH   8  22
TORSDOF 3
