REMARK  4 active torsions:
REMARK  status: ('A' for Active; 'I' for Inactive)
REMARK    1  A    between atoms: N2_4  and  C12_19 
REMARK    2  A    between atoms: C4_7  and  N3_8 
REMARK    3  A    between atoms: N4_9  and  C5_10 
REMARK    4  A    between atoms: C10_15  and  O2_16 
ROOT
ATOM      1  C1  <0> d          -1.243   2.388   0.021  0.00  0.00     0.070 C 
ATOM      2  C2  <0> d          -0.018   1.510   0.010  0.00  0.00     0.065 A 
ATOM      3  N1  <0> d           1.195   1.903   0.001  0.00  0.00    -0.171 NA
ATOM      4  N2  <0> d           2.110   0.855  -0.014  0.00  0.00    -0.199 N 
ATOM      5  C3  <0> d           1.481  -0.339  -0.014  0.00  0.00     0.277 A 
ATOM      6  O1  <0> d           1.989  -1.441  -0.024  0.00  0.00    -0.268 OA
ATOM      7  C4  <0> d           0.002  -0.004   0.002  0.00  0.00     0.273 A 
ENDROOT
BRANCH   7   8
ATOM      8  N3  <0> d          -0.637  -0.535   1.208  0.00  0.00    -0.171 NA
ATOM      9  N4  <0> d          -0.799  -1.758   1.337  0.00  0.00    -0.152 NA
BRANCH   9  10
ATOM     10  C5  <0> d          -1.396  -2.253   2.464  0.00  0.00     0.113 A 
ATOM     11  C10 <0> d          -1.587  -3.634   2.611  0.00  0.00     0.098 A 
ATOM     12  C9  <0> d          -2.186  -4.127   3.759  0.00  0.00     0.041 A 
ATOM     13  C8  <0> d          -2.606  -3.259   4.748  0.00  0.00     0.026 A 
ATOM     14  C7  <0> d          -2.426  -1.892   4.605  0.00  0.00     0.036 A 
ATOM     15  C6  <0> d          -1.825  -1.386   3.471  0.00  0.00     0.060 A 
ATOM     16 Cl1  <0> d          -2.958  -0.814   5.856  0.00  0.00    -0.084 Cl
BRANCH  11  17
ATOM     17  O2  <0> d          -1.179  -4.486   1.636  0.00  0.00    -0.354 OA
ATOM     18  C11 <0> d          -1.406  -5.880   1.855  0.00  0.00     0.210 C 
ENDBRANCH  11  17
ENDBRANCH   9  10
ENDBRANCH   7   8
BRANCH   4  19
ATOM     19  C12 <0> d           3.500   1.018  -0.025  0.00  0.00     0.061 A 
ATOM     20  C17 <0> d           4.052   2.292  -0.024  0.00  0.00     0.032 A 
ATOM     21  C16 <0> d           5.424   2.449  -0.036  0.00  0.00     0.002 A 
ATOM     22  C15 <0> d           6.248   1.339  -0.050  0.00  0.00     0.000 A 
ATOM     23  C14 <0> d           5.702   0.068  -0.052  0.00  0.00     0.002 A 
ATOM     24  C13 <0> d           4.331  -0.096  -0.033  0.00  0.00     0.032 A 
ENDBRANCH   4  19
TORSDOF 4
