REMARK  0 active torsions:
REMARK  status: ('A' for Active; 'I' for Inactive)
ROOT
ATOM      1  C1  <0> d          -1.498   4.955   0.043  0.00  0.00     0.065 A 
ATOM      2  C2  <0> d          -0.769   3.776   0.030  0.00  0.00     0.108 A 
ATOM      3  C3  <0> d           0.624   3.824   0.017  0.00  0.00     0.092 A 
ATOM      4  C4  <0> d           1.277   5.047   0.017  0.00  0.00     0.087 A 
ATOM      5  C5  <0> d           0.543   6.219   0.030  0.00  0.00     0.080 A 
ATOM      6  C6  <0> d          -0.842   6.172   0.043  0.00  0.00     0.060 A 
ATOM      7 Cl1  <0> d          -1.757   7.647   0.061  0.00  0.00    -0.082 Cl
ATOM      8 Cl2  <0> d           1.357   7.752   0.031  0.00  0.00    -0.081 Cl
ATOM      9 Cl3  <0> d           3.012   5.107   0.001  0.00  0.00    -0.080 Cl
ATOM     10  N1  <0> d           1.068   2.501   0.005  0.00  0.00    -0.323 N 
ATOM     11  H1  <0> d           1.992   2.207  -0.005  0.00  0.00     0.169 HD
ATOM     12  C7  <0> d          -0.021   1.708   0.011  0.00  0.00     0.220 A 
ATOM     13  S1  <0> d           0.002  -0.004   0.002  0.00  0.00    -0.033 SA
ATOM     14  O1  <0> d          -1.128   2.469   0.020  0.00  0.00    -0.282 OA
ENDROOT
TORSDOF 0
