REMARK  0 active torsions:
REMARK  status: ('A' for Active; 'I' for Inactive)
ROOT
ATOM      1  C1  <0> d          -0.018   1.461   0.010  0.00  0.00     0.160 C 
ATOM      2  N1  <0> d           0.002  -0.004   0.002  0.00  0.00    -0.311 N 
ATOM      3  C2  <0> d           0.006  -0.672  -1.180  0.00  0.00     0.214 A 
ATOM      4  N2  <0> d           0.024  -1.972  -1.243  0.00  0.00    -0.222 NA
ATOM      5  C3  <0> d           0.041  -2.726  -0.117  0.00  0.00     0.185 A 
ATOM      6  C4  <0> d           0.036  -2.089   1.126  0.00  0.00     0.153 A 
ATOM      7  C5  <0> d           0.022  -0.682   1.172  0.00  0.00     0.279 A 
ATOM      8  O1  <0> d           0.024  -0.091   2.238  0.00  0.00    -0.265 OA
ATOM      9  N3  <0> d           0.054  -3.092   2.076  0.00  0.00    -0.327 N 
ATOM     10  C6  <0> d           0.073  -4.266   1.415  0.00  0.00     0.109 A 
ATOM     11  N4  <0> d           0.063  -4.045   0.121  0.00  0.00    -0.213 NA
ATOM     12  C7  <0> d           0.100  -5.415   2.405  0.00  0.00     0.080 C 
ATOM     13  C8  <0> d           0.522  -4.759   3.739  0.00  0.00     0.028 C 
ATOM     14  C9  <0> d           0.057  -3.301   3.532  0.00  0.00     0.131 C 
ENDROOT
TORSDOF 0
