REMARK  0 active torsions:
REMARK  status: ('A' for Active; 'I' for Inactive)
ROOT
ATOM      1  C1  <0> d           1.290   2.339   0.002  0.00  0.00     0.042 C 
ATOM      2  C2  <0> d          -0.019   1.569   0.011  0.00  0.00     0.036 A 
ATOM      3  C3  <0> d           0.002  -0.004   0.002  0.00  0.00     0.036 A 
ATOM      4  C4  <0> d          -0.484   0.802  -1.216  0.00  0.00     0.122 A 
ATOM      5 Cl1  <0> d          -2.254   0.790  -1.562  0.00  0.00    -0.101 Cl
ATOM      6 Cl2  <0> d           0.586   0.835  -2.667  0.00  0.00    -0.101 Cl
ATOM      7  C5  <0> d           1.434  -0.574  -0.129  0.00  0.00     0.042 C 
ATOM      8  C6  <0> d           2.131  -0.138   1.090  0.00  0.00    -0.075 C 
ATOM      9  C7  <0> d           1.890  -0.604   2.322  0.00  0.00     0.003 C 
ATOM     10  C8  <0> d           2.352   0.174   3.467  0.00  0.00     0.000 C 
ATOM     11  C9  <0> d           2.317   1.504   3.552  0.00  0.00     0.000 C 
ATOM     12  C10 <0> d           1.815   2.378   2.486  0.00  0.00     0.003 C 
ATOM     13  C11 <0> d           2.092   2.047   1.243  0.00  0.00    -0.075 C 
ATOM     14  C12 <0> d           3.159   0.947   1.137  0.00  0.00     0.068 C 
ENDROOT
TORSDOF 0
