REMARK  3 active torsions:
REMARK  status: ('A' for Active; 'I' for Inactive)
REMARK    1  A    between atoms: C5_5  and  C7_7 
REMARK    2  A    between atoms: C7_7  and  N1_8 
REMARK    3  A    between atoms: C10_12  and  C11_13 
ROOT
ATOM      1  N1  <0> d           6.343   1.701  -0.284  0.00  0.00    -0.260 N 
ATOM      2  C8  <0> d           5.019   1.478  -0.157  0.00  0.00     0.278 A 
ATOM      3  O1  <0> d           4.142   2.317  -0.069  0.00  0.00    -0.265 OA
ATOM      4  C9  <0> d           4.850   0.016  -0.146  0.00  0.00     0.106 A 
ATOM      5  C10 <0> d           3.690  -0.678  -0.036  0.00  0.00     0.046 C 
ATOM      6  N2  <0> d           6.144  -0.505  -0.267  0.00  0.00    -0.304 N 
ATOM      7  C17 <0> d           6.997   0.532  -0.351  0.00  0.00     0.330 A 
ATOM      8  O2  <0> d           8.203   0.423  -0.468  0.00  0.00    -0.246 OA
ATOM      9  H12 <0> d           6.383  -1.445  -0.289  0.00  0.00     0.171 HD
ENDROOT
BRANCH   1  10
ATOM     10  C7  <0> d           6.973   3.023  -0.340  0.00  0.00     0.178 C 
BRANCH  10  11
ATOM     11  C5  <0> d           7.325   3.471   1.055  0.00  0.00    -0.001 A 
ATOM     12  C4  <0> d           8.469   2.990   1.668  0.00  0.00     0.124 A 
ATOM     13  C3  <0> d           8.792   3.403   2.950  0.00  0.00     0.043 A 
ATOM     14  F1  <0> d           9.271   2.119   1.017  0.00  0.00    -0.205 F 
ATOM     15  C2  <0> d           7.972   4.295   3.615  0.00  0.00     0.003 A 
ATOM     16  C1  <0> d           6.829   4.774   3.001  0.00  0.00     0.001 A 
ATOM     17  C6  <0> d           6.509   4.367   1.720  0.00  0.00     0.012 A 
ENDBRANCH  10  11
ENDBRANCH   1  10
BRANCH   5  18
ATOM     18  C11 <0> d           2.436   0.029   0.259  0.00  0.00    -0.034 A 
ATOM     19  C16 <0> d           2.424   1.087   1.174  0.00  0.00     0.012 A 
ATOM     20  C15 <0> d           1.243   1.745   1.446  0.00  0.00     0.019 A 
ATOM     21  C14 <0> d           0.071   1.361   0.817  0.00  0.00     0.006 A 
ATOM     22  C13 <0> d           0.075   0.314  -0.090  0.00  0.00     0.019 A 
ATOM     23  I1  <0> d          -1.715   2.373   1.232  0.00  0.00    -0.045 I 
ATOM     24  C12 <0> d           1.247  -0.354  -0.373  0.00  0.00     0.012 A 
ENDBRANCH   5  18
TORSDOF 3
