REMARK  7 active torsions:
REMARK  status: ('A' for Active; 'I' for Inactive)
REMARK    1  A    between atoms: C2_2  and  C3_3 
REMARK    2  A    between atoms: C3_3  and  C4_4 
REMARK    3  A    between atoms: C4_4  and  C5_5 
REMARK    4  A    between atoms: C5_5  and  C6_6 
REMARK    5  A    between atoms: C6_6  and  C7_7 
REMARK    6  A    between atoms: C7_7  and  N1_8 
REMARK    7  A    between atoms: C11_12  and  C12_13 
ROOT
ATOM      1  C12 <0> d           1.159   1.774   0.001  0.00  0.00     0.035 C 
ATOM      2  C13 <0> d           2.387   1.087  -0.015  0.00  0.00     0.124 C 
ATOM      3  C14 <0> d           2.407  -0.345  -0.023  0.00  0.00     0.110 C 
ATOM      4  N2  <0> d           2.422  -1.481  -0.029  0.00  0.00    -0.191 NA
ATOM      5  C15 <0> d           3.618   1.819  -0.023  0.00  0.00     0.110 C 
ATOM      6  N3  <0> d           4.594   2.401  -0.029  0.00  0.00    -0.191 NA
ENDROOT
BRANCH   1   7
ATOM      7  C11 <0> d          -0.013   1.076   0.008  0.00  0.00     0.013 C 
ATOM      8  C10 <0> d          -1.244   1.765   0.018  0.00  0.00    -0.034 A 
ATOM      9  C9  <0> d          -2.468   1.055   0.020  0.00  0.00     0.028 A 
ATOM     10  C16 <0> d          -1.280   3.179   0.031  0.00  0.00     0.028 A 
ATOM     11  C8  <0> d          -3.632   1.744   0.029  0.00  0.00     0.091 A 
ATOM     12  N1  <0> d          -3.633   3.101   0.037  0.00  0.00    -0.366 N 
ATOM     13  C17 <0> d          -2.476   3.810   0.035  0.00  0.00     0.091 A 
BRANCH  12  14
ATOM     14  C7  <0> d          -4.911   3.816   0.047  0.00  0.00     0.128 C 
BRANCH  14  15
ATOM     15  C6  <0> d          -5.350   4.057   1.493  0.00  0.00     0.020 C 
BRANCH  15  16
ATOM     16  C5  <0> d          -6.685   4.804   1.503  0.00  0.00     0.002 C 
BRANCH  16  17
ATOM     17  C4  <0> d          -7.124   5.044   2.949  0.00  0.00     0.000 C 
BRANCH  17  18
ATOM     18  C3  <0> d          -8.459   5.791   2.960  0.00  0.00    -0.000 C 
BRANCH  18  19
ATOM     19  C2  <0> d          -8.898   6.032   4.406  0.00  0.00    -0.005 C 
ATOM     20  C1  <0> d         -10.233   6.779   4.416  0.00  0.00     0.005 C 
ENDBRANCH  18  19
ENDBRANCH  17  18
ENDBRANCH  16  17
ENDBRANCH  15  16
ENDBRANCH  14  15
ENDBRANCH  12  14
ENDBRANCH   1   7
TORSDOF 7
