REMARK  4 active torsions:
REMARK  status: ('A' for Active; 'I' for Inactive)
REMARK    1  A    between atoms: C2_2  and  C3_3 
REMARK    2  A    between atoms: C3_3  and  N1_4 
REMARK    3  A    between atoms: C6_8  and  C7_9 
REMARK    4  A    between atoms: N2_13  and  C11_14 
ROOT
ATOM      1  C7  <0> d           4.822  -0.334  -1.449  0.00  0.00     0.040 A 
ATOM      2  C8  <0> d           5.420  -1.581  -1.411  0.00  0.00     0.031 A 
ATOM      3  C9  <0> d           5.340  -2.036  -0.091  0.00  0.00     0.020 A 
ATOM      4  C10 <0> d           4.715  -1.083   0.642  0.00  0.00     0.097 A 
ATOM      5  N2  <0> d           4.389  -0.044  -0.172  0.00  0.00    -0.322 N 
ENDROOT
BRANCH   1   6
ATOM      6  C6  <0> d           4.680   0.492  -2.589  0.00  0.00     0.054 C 
ATOM      7  C5  <0> d           3.439   0.763  -3.084  0.00  0.00     0.080 A 
ATOM      8  C4  <0> d           2.171   0.237  -2.694  0.00  0.00     0.268 A 
ATOM      9  S1  <0> d           2.957   1.881  -4.393  0.00  0.00    -0.023 SA
ATOM     10  N1  <0> d           1.098   0.664  -3.337  0.00  0.00    -0.271 N 
ATOM     11  O1  <0> d           2.080  -0.581  -1.797  0.00  0.00    -0.266 OA
ATOM     12  C17 <0> d           1.199   1.572  -4.333  0.00  0.00     0.294 A 
ATOM     13  O2  <0> d           0.315   2.059  -5.013  0.00  0.00    -0.259 OA
BRANCH  10  14
ATOM     14  C3  <0> d          -0.221   0.146  -2.964  0.00  0.00     0.162 C 
BRANCH  14  15
ATOM     15  C2  <0> d          -0.866   1.079  -1.972  0.00  0.00    -0.017 C 
ATOM     16  C1  <0> d          -2.047   1.587  -2.222  0.00  0.00     0.008 C 
ENDBRANCH  14  15
ENDBRANCH  10  14
ENDBRANCH   1   6
BRANCH   5  17
ATOM     17  C11 <0> d           3.729   1.128   0.221  0.00  0.00     0.039 A 
ATOM     18  C16 <0> d           4.304   2.367  -0.028  0.00  0.00     0.031 A 
ATOM     19  C15 <0> d           3.652   3.520   0.362  0.00  0.00     0.020 A 
ATOM     20  C14 <0> d           2.427   3.442   1.000  0.00  0.00     0.006 A 
ATOM     21  C13 <0> d           1.851   2.209   1.248  0.00  0.00     0.020 A 
ATOM     22  I1  <0> d           1.437   5.194   1.581  0.00  0.00    -0.045 I 
ATOM     23  C12 <0> d           2.499   1.052   0.861  0.00  0.00     0.031 A 
ENDBRANCH   5  17
TORSDOF 4
