USER    Name = ZINC000000000053
USER                              x       y       z     vdW  Elec       q    Type
USER                           _______ _______ _______ _____ _____    ______ ____
ROOT
HETATM    1  C5  <0> A  1       -0.958  -2.034   0.008  0.00  0.00    +0.110 A 
HETATM    2  C6  <0> A  1        0.327  -2.552   0.059  0.00  0.00    -0.020 A 
HETATM    3  C7  <0> A  1        0.523  -3.920   0.058  0.00  0.00    +0.000 A 
HETATM    4  C8  <0> A  1       -0.559  -4.783   0.005  0.00  0.00    -0.020 A 
HETATM    5  C9  <0> A  1       -1.843  -4.287  -0.047  0.00  0.00    +0.050 A 
HETATM    6  C10 <0> A  1       -2.057  -2.905  -0.040  0.00  0.00    -0.140 A 
ENDROOT
BRANCH   6   7
HETATM    7  C11 <0> A  1       -3.426  -2.367  -0.094  0.00  0.00    +0.520 C 
HETATM    8  O12 <0> A  1       -4.381  -3.130  -0.146  0.00  0.00    -0.690 OA
HETATM    9  O13 <0> A  1       -3.609  -1.158  -0.088  0.00  0.00    -0.680 OA
ENDBRANCH   6   7
BRANCH   1  10
HETATM   10  O4  <0> A  1       -1.152  -0.691   0.009  0.00  0.00    -0.280 OA
BRANCH  10  12
HETATM   11  C1  <0> A  1       -1.464   1.394   1.295  0.00  0.00    +0.140 C 
HETATM   12  C2  <0> A  1       -1.355  -0.106   1.201  0.00  0.00    +0.480 C 
HETATM   13  O3  <0> A  1       -1.449  -0.782   2.198  0.00  0.00    -0.510 OA
ENDBRANCH  10  12
ENDBRANCH   1  10
TORSDOF 3
TER
