USER    Name = ZINC00156021
USER                              x       y       z     vdW  Elec       q    Type
USER                           _______ _______ _______ _____ _____    ______ ____
ROOT
HETATM    1  C10 <0> A  1        1.629  -1.173   4.551  0.00  0.00    +0.277 C 
ENDROOT
BRANCH   1   2
HETATM    2  C11 <0> A  1        2.718  -1.994   5.194  0.00  0.00    -0.090 A 
HETATM    3  C12 <0> A  1        3.962  -2.069   4.635  0.00  0.00    +0.004 A 
HETATM    4  C13 <0> A  1        4.954  -2.833   5.247  0.00  0.00    +0.289 A 
HETATM    5  N2  <0> A  1        4.729  -3.493   6.358  0.00  0.00    -0.441 NA
HETATM    6  C14 <0> A  1        3.535  -3.461   6.956  0.00  0.00    +0.099 A 
HETATM    7  C15 <0> A  1        2.483  -2.698   6.389  0.00  0.00    -0.044 A 
HETATM    8  C16 <0> A  1        1.231  -2.664   7.023  0.00  0.00    -0.051 A 
HETATM    9  C17 <0> A  1        1.042  -3.361   8.182  0.00  0.00    +0.159 A 
HETATM   10  C18 <0> A  1        2.081  -4.110   8.744  0.00  0.00    -0.030 A 
HETATM   11  C19 <0> A  1        3.301  -4.172   8.147  0.00  0.00    +0.115 A 
BRANCH   9  12
HETATM   12  O1  <0> A  1       -0.170  -3.328   8.796  0.00  0.00    -0.314 OA
HETATM   13  C20 <0> A  1       -0.305  -4.078  10.005  0.00  0.00    +0.256 C 
ENDBRANCH   9  12
ENDBRANCH   1   2
BRANCH   1  21
HETATM   14  C3  <0> A  1        0.799  -0.545   1.220  0.00  0.00    +0.007 C 
HETATM   15  C4  <0> A  1        0.002  -0.136   2.461  0.00  0.00    +0.260 C 
HETATM   16  N1  <0> A  1       -0.407  -1.327   3.209  0.00  0.00    -0.367 N 
HETATM   17  C5  <0> A  1       -1.275  -2.178   2.390  0.00  0.00    +0.252 C 
HETATM   18  C6  <0> A  1       -0.519  -2.654   1.148  0.00  0.00    +0.063 C 
HETATM   19  C7  <0> A  1        0.904  -2.075   1.178  0.00  0.00    +0.023 C 
HETATM   20  C8  <0> A  1        1.591  -2.549   2.466  0.00  0.00    +0.069 C 
HETATM   21  C9  <0> A  1        0.765  -2.075   3.668  0.00  0.00    +0.144 C 
HETATM   22  H27 <0> A  1       -0.934  -1.031   4.017  0.00  0.00    +0.423 HD
BRANCH  14  24
HETATM   23  C1  <0> A  1        0.085   1.485  -0.050  0.00  0.00    +0.021 C 
HETATM   24  C2  <0> A  1        0.084  -0.045  -0.037  0.00  0.00    +0.026 C 
ENDBRANCH  14  24
ENDBRANCH   1  21
BRANCH   1  25
HETATM   25  O2  <0> A  1        2.217  -0.145   3.752  0.00  0.00    -0.535 OA
HETATM   26  H26 <0> A  1        2.783  -0.475   3.041  0.00  0.00    +0.386 HD
ENDBRANCH   1  25
TORSDOF 5
TER
