USER    Name = ZINC53683151
USER                              x       y       z     vdW  Elec       q    Type
USER                           _______ _______ _______ _____ _____    ______ ____
ROOT
HETATM    1  C5  <0> A  1       -0.032  -0.017   1.916  0.00  0.00    +0.287 C 
HETATM    2  C6  <0> A  1        0.830  -0.563   3.032  0.00  0.00    +0.537 C 
HETATM    3  O1  <0> A  1        0.848  -1.756   3.248  0.00  0.00    -0.513 OA
HETATM    4  N1  <0> A  1        1.574   0.258   3.784  0.00  0.00    -0.610 N 
HETATM    5  C7  <0> A  1        2.701  -0.123   4.662  0.00  0.00    +0.274 C 
HETATM    6  C8  <0> A  1        3.748   0.986   4.369  0.00  0.00    +0.037 C 
HETATM    7  C9  <0> A  1        2.869   2.254   4.236  0.00  0.00    +0.058 C 
HETATM    8  C10 <0> A  1        1.470   1.726   3.875  0.00  0.00    +0.260 C 
HETATM    9  C11 <0> A  1        1.039   2.266   2.507  0.00  0.00    +0.467 C 
HETATM   10  N2  <0> A  1       -0.100   1.444   2.058  0.00  0.00    -0.647 N 
HETATM   11  C12 <0> A  1       -1.155   2.236   1.823  0.00  0.00    +0.499 C 
HETATM   12  O2  <0> A  1       -2.229   1.878   1.388  0.00  0.00    -0.451 OA
HETATM   13  C13 <0> A  1       -0.777   3.649   2.192  0.00  0.00    +0.321 C 
HETATM   14  O3  <0> A  1        0.589   3.615   2.630  0.00  0.00    -0.340 OA
ENDROOT
BRANCH  13  15
HETATM   15  N3  <0> A  1       -0.907   4.524   1.025  0.00  0.00    -0.727 N 
HETATM   16  C17 <0> A  1       -2.114   4.709   0.453  0.00  0.00    +0.530 C 
HETATM   17  O4  <0> A  1       -3.105   4.229   0.960  0.00  0.00    -0.492 OA
HETATM   18  H28 <0> A  1       -0.126   4.970   0.663  0.00  0.00    +0.409 HD
BRANCH  16  19
HETATM   19  C18 <0> A  1       -2.230   5.511  -0.818  0.00  0.00    +0.056 C 
HETATM   20  C19 <0> A  1       -3.699   5.582  -1.250  0.00  0.00    +0.224 C 
HETATM   21  N4  <0> A  1       -3.794   6.449  -2.429  0.00  0.00    -0.548 NA
HETATM   22  C20 <0> A  1       -3.432   7.832  -2.149  0.00  0.00    +0.186 C 
HETATM   23  C21 <0> A  1       -3.199   8.582  -3.468  0.00  0.00    +0.146 C 
HETATM   24  C22 <0> A  1       -2.711   9.976  -3.171  0.00  0.00    -0.110 A 
HETATM   25  C23 <0> A  1       -2.019  10.248  -1.917  0.00  0.00    -0.133 A 
HETATM   26  C24 <0> A  1       -1.766   9.306  -0.897  0.00  0.00    +0.004 A 
HETATM   27  C25 <0> A  1       -1.088   9.784   0.200  0.00  0.00    +0.001 A 
HETATM   28  C26 <0> A  1       -0.711  11.125   0.249  0.00  0.00    +0.040 A 
HETATM   29  C27 <0> A  1       -0.974  12.049  -0.755  0.00  0.00    +0.013 A 
HETATM   30  C28 <0> A  1       -1.657  11.597  -1.884  0.00  0.00    +0.129 A 
HETATM   31  N5  <0> A  1       -2.115  12.121  -3.056  0.00  0.00    -0.579 N 
HETATM   32  H5  <0> A  1       -2.018  13.048  -3.323  0.00  0.00    +0.420 HD
HETATM   33  C29 <0> A  1       -2.741  11.141  -3.811  0.00  0.00    +0.069 A 
HETATM   34 Br1  <0> A  1       -3.525  11.422  -5.509  0.00  0.00    +0.011 Br
HETATM   35  C30 <0> A  1       -2.277   7.954  -1.191  0.00  0.00    -0.052 C 
HETATM   36  C31 <0> A  1       -1.737   6.913  -0.579  0.00  0.00    -0.013 C 
HETATM   37  C32 <0> A  1       -5.128   6.366  -3.038  0.00  0.00    +0.208 C 
ENDBRANCH  16  19
ENDBRANCH  13  15
BRANCH  13  38
HETATM   38  C14 <0> A  1       -1.675   4.151   3.325  0.00  0.00    +0.017 C 
HETATM   39  C15 <0> A  1       -1.453   3.292   4.571  0.00  0.00    +0.034 C 
HETATM   40  C16 <0> A  1       -1.331   5.608   3.641  0.00  0.00    +0.046 C 
ENDBRANCH  13  38
BRANCH   9  41
HETATM   41  O5  <0> A  1        2.123   2.188   1.578  0.00  0.00    -0.526 OA
HETATM   42  H40 <0> A  1        1.908   2.516   0.694  0.00  0.00    +0.387 HD
ENDBRANCH   9  41
BRANCH   1  43
HETATM   43  C4  <0> A  1        0.587  -0.376   0.564  0.00  0.00    +0.043 C 
BRANCH  43  45
HETATM   44  C1  <0> A  1       -0.960  -2.313   0.251  0.00  0.00    +0.020 C 
HETATM   45  C2  <0> A  1        0.506  -1.889   0.351  0.00  0.00    -0.012 C 
HETATM   46  C3  <0> A  1        1.234  -2.262  -0.942  0.00  0.00    +0.022 C 
ENDBRANCH  43  45
ENDBRANCH   1  43
TORSDOF 6
TER
