USER    Name = ZINC00020244
USER                              x       y       z     vdW  Elec       q    Type
USER                           _______ _______ _______ _____ _____    ______ ____
ROOT
HETATM    1  C5  <0> A  1       -0.986  -3.938   1.259  0.00  0.00    +0.274 C 
ENDROOT
BRANCH   1   2
HETATM    2  C6  <0> A  1        0.402  -4.430   0.937  0.00  0.00    -0.120 A 
HETATM    3  C7  <0> A  1        1.505  -3.737   1.400  0.00  0.00    +0.015 A 
HETATM    4  C8  <0> A  1        2.778  -4.188   1.105  0.00  0.00    +0.004 A 
HETATM    5  C9  <0> A  1        2.948  -5.332   0.347  0.00  0.00    +0.019 A 
HETATM    6  C10 <0> A  1        1.844  -6.025  -0.115  0.00  0.00    +0.016 A 
HETATM    7  C11 <0> A  1        0.571  -5.576   0.184  0.00  0.00    +0.018 A 
ENDBRANCH   1   2
BRANCH   1   8
HETATM    8  C12 <0> A  1       -1.353  -4.353   2.660  0.00  0.00    -0.095 A 
HETATM    9  C13 <0> A  1       -0.976  -3.569   3.735  0.00  0.00    +0.027 A 
HETATM   10  C14 <0> A  1       -1.313  -3.949   5.020  0.00  0.00    +0.005 A 
HETATM   11  C15 <0> A  1       -2.028  -5.113   5.231  0.00  0.00    +0.019 A 
HETATM   12  C16 <0> A  1       -2.406  -5.896   4.157  0.00  0.00    +0.014 A 
HETATM   13  C17 <0> A  1       -2.073  -5.514   2.871  0.00  0.00    +0.017 A 
ENDBRANCH   1   8
BRANCH   1  14
HETATM   14  O1  <0> A  1       -1.021  -2.513   1.159  0.00  0.00    -0.384 OA
BRANCH  14  15
HETATM   15  C4  <0> A  1       -1.362  -2.030  -0.142  0.00  0.00    +0.202 C 
BRANCH  15  16
HETATM   16  C3  <0> A  1       -1.370  -0.500  -0.132  0.00  0.00    +0.281 C 
BRANCH  16  18
HETATM   17  C1  <0> A  1        0.864  -0.358  -0.995  0.00  0.00    +0.318 C 
HETATM   18  N1  <0> A  1       -0.012  -0.005   0.131  0.00  0.00    -0.387 N 
HETATM   19  C2  <0> A  1       -0.044   1.455   0.287  0.00  0.00    +0.324 C 
HETATM   20  H22 <0> A  1        0.342  -0.426   0.977  0.00  0.00    +0.432 HD
ENDBRANCH  16  18
ENDBRANCH  15  16
ENDBRANCH  14  15
ENDBRANCH   1  14
TORSDOF 6
TER
