REMARK  Name = ZINC000095987053
REMARK                            x       y       z     vdW  Elec       q    Type
REMARK                         _______ _______ _______ _____ _____    ______ ____
ROOT
ATOM      1  C   LIG    1        2.334   1.173  -0.104  0.00  0.00    +0.034 A 
ATOM      2  C   LIG    1        3.555   1.834  -0.106  0.00  0.00    +0.025 A 
ATOM      3  C   LIG    1        4.729   1.115  -0.205  0.00  0.00    +0.029 A 
ATOM      4  C   LIG    1        4.689  -0.269  -0.313  0.00  0.00    +0.066 A 
ATOM      5  C   LIG    1        3.467  -0.930  -0.317  0.00  0.00    +0.029 A 
ATOM      6  C   LIG    1        2.293  -0.212  -0.213  0.00  0.00    +0.025 A 
ENDROOT
BRANCH   4   7
ATOM      7  N   LIG    1        5.880  -0.999  -0.419  0.00  0.00    -0.232 N 
ATOM      8  N   LIG    1        6.106  -2.269   0.122  0.00  0.00    -0.174 NA
ATOM      9  C   LIG    1        7.315  -2.666  -0.155  0.00  0.00    +0.143 A 
ATOM     10  C   LIG    1        7.964  -1.613  -0.931  0.00  0.00    +0.020 A 
ATOM     11  C   LIG    1        9.234  -1.469  -1.500  0.00  0.00    +0.011 A 
ATOM     12  C   LIG    1        9.544  -0.330  -2.186  0.00  0.00    +0.001 A 
ATOM     13  C   LIG    1        8.610   0.689  -2.324  0.00  0.00    +0.002 A 
ATOM     14  C   LIG    1        7.354   0.571  -1.773  0.00  0.00    +0.028 A 
ATOM     15  C   LIG    1        7.013  -0.584  -1.075  0.00  0.00    +0.075 A 
ENDBRANCH   4   7
BRANCH   1  16
ATOM     16  N   LIG    1        1.143   1.901   0.001  0.00  0.00    -0.280 N 
ATOM     17  H   LIG    1        0.391   1.533   0.490  0.00  0.00    +0.155 HD
ATOM     18  C   LIG    1        1.043   3.115  -0.576  0.00  0.00    +0.268 C 
ATOM     19  O   LIG    1        2.011   3.613  -1.117  0.00  0.00    -0.268 OA
BRANCH  18  20
ATOM     20  C   LIG    1       -0.244   3.843  -0.547  0.00  0.00    +0.146 A 
ATOM     21  N   LIG    1       -1.288   3.304   0.042  0.00  0.00    -0.166 NA
ATOM     22  N   LIG    1       -2.426   3.896   0.095  0.00  0.00    -0.243 N 
ATOM     23  H   LIG    1       -3.166   3.457   0.542  0.00  0.00    +0.192 HD
ATOM     24  C   LIG    1       -2.621   5.110  -0.455  0.00  0.00    +0.265 A 
ATOM     25  O   LIG    1       -3.714   5.646  -0.388  0.00  0.00    -0.266 OA
ATOM     26  C   LIG    1       -1.549   5.759  -1.108  0.00  0.00    +0.074 A 
ATOM     27  C   LIG    1       -0.346   5.120  -1.150  0.00  0.00    +0.040 A 
ENDBRANCH  18  20
ENDBRANCH   1  16
TORSDOF 3
