REMARK  Name = ZINC000134402684
REMARK                            x       y       z     vdW  Elec       q    Type
REMARK                         _______ _______ _______ _____ _____    ______ ____
ROOT
ATOM      1  C   LIG    1        0.652  -2.019  -1.435  0.00  0.00    +0.106 C 
ATOM      2  N   LIG    1       -0.729  -2.417  -1.753  0.00  0.00    -0.278 N 
ATOM      3  C   LIG    1       -1.748  -1.543  -1.632  0.00  0.00    +0.303 C 
ATOM      4  O   LIG    1       -1.523  -0.380  -1.358  0.00  0.00    -0.253 OA
ATOM      5  N   LIG    1       -3.017  -1.959  -1.816  0.00  0.00    -0.295 N 
ATOM      6  H   LIG    1       -3.192  -2.868  -2.105  0.00  0.00    +0.151 HD
ATOM      7  C   LIG    1       -0.963  -3.796  -2.209  0.00  0.00    +0.137 C 
ATOM      8  C   LIG    1        0.016  -4.103  -3.348  0.00  0.00    +0.179 C 
ATOM      9  O   LIG    1        1.345  -3.792  -2.922  0.00  0.00    -0.376 OA
ATOM     10  C   LIG    1        1.553  -2.412  -2.611  0.00  0.00    +0.182 C 
ENDROOT
BRANCH   1  11
ATOM     11  C   LIG    1        0.716  -0.505  -1.221  0.00  0.00    +0.056 C 
BRANCH  11  12
ATOM     12  C   LIG    1        2.149  -0.100  -0.870  0.00  0.00    +0.113 C 
ATOM     13  C   LIG    1        2.181   1.382  -0.489  0.00  0.00    +0.037 C 
BRANCH  12  14
ATOM     14  O   LIG    1        2.996  -0.319  -2.000  0.00  0.00    -0.392 OA
ATOM     15  H   LIG    1        2.741   0.183  -2.786  0.00  0.00    +0.210 HD
ENDBRANCH  12  14
ENDBRANCH  11  12
ENDBRANCH   1  11
BRANCH   5  16
ATOM     16  C   LIG    1       -4.131  -1.037  -1.579  0.00  0.00    +0.141 C 
BRANCH  16  17
ATOM     17  C   LIG    1       -5.434  -1.743  -1.854  0.00  0.00    -0.030 A 
ATOM     18  C   LIG    1       -6.081  -2.421  -0.837  0.00  0.00    +0.017 A 
ATOM     19  C   LIG    1       -7.278  -3.064  -1.088  0.00  0.00    +0.055 A 
ATOM     20  C   LIG    1       -7.824  -3.038  -2.358  0.00  0.00    +0.012 A 
ATOM     21  C   LIG    1       -7.174  -2.365  -3.376  0.00  0.00    +0.001 A 
ATOM     22  C   LIG    1       -5.979  -1.718  -3.124  0.00  0.00    +0.005 A 
BRANCH  19  23
ATOM     23  C   LIG    1       -7.986  -3.798   0.021  0.00  0.00    +0.417 C 
ATOM     24  F   LIG    1       -8.297  -2.901   1.049  0.00  0.00    -0.166 F 
ATOM     25  F   LIG    1       -7.154  -4.807   0.519  0.00  0.00    -0.166 F 
ATOM     26  F   LIG    1       -9.165  -4.366  -0.474  0.00  0.00    -0.166 F 
ENDBRANCH  19  23
ENDBRANCH  16  17
ENDBRANCH   5  16
TORSDOF 6
