REMARK  Name = ZINC000084692163
REMARK                            x       y       z     vdW  Elec       q    Type
REMARK                         _______ _______ _______ _____ _____    ______ ____
ROOT
ATOM      1  N   LIG    1        1.578  -2.907   5.331  0.00  0.00    -0.295 N 
ATOM      2  C   LIG    1        1.982  -3.487   6.479  0.00  0.00    +0.300 C 
ATOM      3  N   LIG    1        1.097  -3.705   7.471  0.00  0.00    -0.299 N 
ATOM      4  H   LIG    1        0.169  -3.446   7.359  0.00  0.00    +0.150 HD
ATOM      5  O   LIG    1        3.145  -3.812   6.620  0.00  0.00    -0.253 OA
ATOM      6  H   LIG    1        0.650  -2.648   5.219  0.00  0.00    +0.151 HD
ENDROOT
BRANCH   3   7
ATOM      7  C   LIG    1        1.536  -4.335   8.719  0.00  0.00    +0.115 C 
BRANCH   7   8
ATOM      8  C   LIG    1        0.344  -4.466   9.671  0.00  0.00    +0.114 C 
BRANCH   8   9
ATOM      9  C   LIG    1        0.796  -5.114  10.954  0.00  0.00    +0.217 C 
ATOM     10  N   LIG    1       -0.089  -5.333  11.947  0.00  0.00    -0.299 N 
ATOM     11  C   LIG    1        0.305  -6.074  13.152  0.00  0.00    +0.073 C 
ATOM     12  C   LIG    1       -0.674  -7.225  13.372  0.00  0.00    +0.022 C 
ATOM     13  C   LIG    1       -2.102  -6.677  13.410  0.00  0.00    +0.003 C 
ATOM     14  C   LIG    1       -2.430  -6.010  12.072  0.00  0.00    +0.019 C 
ATOM     15  C   LIG    1        1.720  -6.630  12.978  0.00  0.00    +0.028 C 
ATOM     16  C   LIG    1       -1.469  -4.840  11.841  0.00  0.00    +0.108 C 
ATOM     17  O   LIG    1        1.956  -5.439  11.094  0.00  0.00    -0.276 OA
ENDBRANCH   8   9
ENDBRANCH   7   8
ENDBRANCH   3   7
BRANCH   1  18
ATOM     18  C   LIG    1        2.541  -2.670   4.253  0.00  0.00    +0.141 C 
BRANCH  18  19
ATOM     19  C   LIG    1        1.840  -2.016   3.089  0.00  0.00    -0.030 A 
ATOM     20  C   LIG    1        1.766  -0.637   3.014  0.00  0.00    +0.009 A 
ATOM     21  C   LIG    1        1.125  -0.036   1.949  0.00  0.00    +0.046 A 
ATOM     22  C   LIG    1        0.555  -0.816   0.954  0.00  0.00    +0.120 A 
ATOM     23  C   LIG    1        0.626  -2.200   1.034  0.00  0.00    +0.046 A 
ATOM     24  C   LIG    1        1.272  -2.796   2.099  0.00  0.00    +0.009 A 
BRANCH  22  25
ATOM     25  O   LIG    1       -0.077  -0.227  -0.096  0.00  0.00    -0.495 OA
ATOM     26  C   LIG    1       -0.111   1.202  -0.113  0.00  0.00    +0.277 C 
ENDBRANCH  22  25
ENDBRANCH  18  19
ENDBRANCH   1  18
TORSDOF 6
