REMARK  Name = ZINC000025814600
REMARK                            x       y       z     vdW  Elec       q    Type
REMARK                         _______ _______ _______ _____ _____    ______ ____
ROOT
ATOM      1  O   LIG    1        0.987   1.806  -0.377  0.00  0.00    -0.276 OA
ATOM      2  C   LIG    1       -0.038   1.197  -0.157  0.00  0.00    +0.217 C 
ATOM      3  N   LIG    1       -1.181   1.867   0.094  0.00  0.00    -0.290 N 
ENDROOT
BRANCH   3   4
ATOM      4  C   LIG    1       -1.210   3.328  -0.008  0.00  0.00    +0.099 C 
ATOM      5  C   LIG    1       -0.239   3.937   1.019  0.00  0.00    +0.047 C 
ATOM      6  C   LIG    1       -0.071   5.431   0.638  0.00  0.00    +0.168 C 
ATOM      7  S   LIG    1        0.079   5.363  -1.187  0.00  0.00    -0.029 S 
ATOM      8  O   LIG    1        1.448   5.231  -1.543  0.00  0.00    -0.174 OA
ATOM      9  O   LIG    1       -0.706   6.398  -1.763  0.00  0.00    -0.174 OA
ATOM     10  C   LIG    1       -0.765   3.759  -1.420  0.00  0.00    +0.188 C 
ENDBRANCH   3   4
BRANCH   3  11
ATOM     11  C   LIG    1       -2.393   1.134   0.468  0.00  0.00    +0.182 C 
BRANCH  11  12
ATOM     12  C   LIG    1       -2.447   0.985   1.966  0.00  0.00    +0.122 A 
ATOM     13  C   LIG    1       -3.027   1.846   2.822  0.00  0.00    +0.046 A 
ATOM     14  C   LIG    1       -2.843   1.319   4.121  0.00  0.00    +0.041 A 
ATOM     15  C   LIG    1       -2.163   0.167   3.981  0.00  0.00    +0.195 A 
ATOM     16  O   LIG    1       -1.931  -0.033   2.674  0.00  0.00    -0.466 OA
ENDBRANCH  11  12
ENDBRANCH   3  11
BRANCH   2  17
ATOM     17  C   LIG    1       -0.034  -0.310  -0.159  0.00  0.00    +0.100 C 
BRANCH  17  18
ATOM     18  C   LIG    1        1.371  -0.816  -0.492  0.00  0.00    +0.044 C 
BRANCH  18  19
ATOM     19  C   LIG    1        1.376  -2.323  -0.494  0.00  0.00    -0.047 A 
ATOM     20  C   LIG    1        1.648  -3.015   0.671  0.00  0.00    +0.003 A 
ATOM     21  C   LIG    1        1.652  -4.397   0.670  0.00  0.00    +0.000 A 
ATOM     22  C   LIG    1        1.383  -5.088  -0.497  0.00  0.00    +0.000 A 
ATOM     23  C   LIG    1        1.110  -4.396  -1.662  0.00  0.00    +0.000 A 
ATOM     24  C   LIG    1        1.102  -3.014  -1.660  0.00  0.00    +0.003 A 
ENDBRANCH  18  19
ENDBRANCH  17  18
ENDBRANCH   2  17
TORSDOF 6
