REMARK  Name = ZINC000082166828
REMARK                            x       y       z     vdW  Elec       q    Type
REMARK                         _______ _______ _______ _____ _____    ______ ____
ROOT
ATOM      1  C   LIG    1        1.330  -4.431   2.159  0.00  0.00    +0.248 C 
ATOM      2  N   LIG    1        2.115  -4.715   3.217  0.00  0.00    -0.284 N 
ATOM      3  C   LIG    1        2.926  -3.676   3.870  0.00  0.00    +0.204 C 
ATOM      4  C   LIG    1        4.289  -4.239   4.168  0.00  0.00    +0.237 C 
ATOM      5  O   LIG    1        5.173  -3.473   4.490  0.00  0.00    -0.274 OA
ATOM      6  N   LIG    1        4.570  -5.540   4.094  0.00  0.00    -0.268 N 
ATOM      7  C   LIG    1        3.639  -6.563   3.637  0.00  0.00    +0.136 C 
ATOM      8  C   LIG    1        2.189  -6.077   3.772  0.00  0.00    +0.091 C 
ATOM      9  C   LIG    1        1.259  -7.006   2.988  0.00  0.00    +0.029 C 
ATOM     10  O   LIG    1        0.610  -5.289   1.689  0.00  0.00    -0.270 OA
ENDROOT
BRANCH   6  11
ATOM     11  C   LIG    1        5.849  -5.952   4.484  0.00  0.00    +0.036 A 
ATOM     12  C   LIG    1        6.106  -6.262   5.813  0.00  0.00    +0.024 A 
ATOM     13  C   LIG    1        7.369  -6.669   6.195  0.00  0.00    +0.005 A 
ATOM     14  C   LIG    1        8.379  -6.767   5.255  0.00  0.00    -0.050 A 
ATOM     15  C   LIG    1        9.757  -7.210   5.675  0.00  0.00    +0.044 C 
ATOM     16  C   LIG    1        8.127  -6.460   3.930  0.00  0.00    +0.005 A 
ATOM     17  C   LIG    1        6.864  -6.058   3.542  0.00  0.00    +0.024 A 
ENDBRANCH   6  11
BRANCH   1  18
ATOM     18  C   LIG    1        1.347  -3.072   1.569  0.00  0.00    +0.043 A 
ATOM     19  C   LIG    1        1.375  -1.937   2.382  0.00  0.00    +0.080 A 
ATOM     20  C   LIG    1        1.389  -0.683   1.786  0.00  0.00    +0.215 A 
ATOM     21  N   LIG    1        1.371  -0.560   0.470  0.00  0.00    -0.221 NA
ATOM     22  C   LIG    1        1.350  -1.609  -0.330  0.00  0.00    +0.115 A 
ATOM     23  C   LIG    1        1.334  -2.891   0.181  0.00  0.00    +0.033 A 
BRANCH  20  24
ATOM     24  O   LIG    1        1.416   0.428   2.563  0.00  0.00    -0.480 OA
ATOM     25  C   LIG    1        1.423   1.690   1.891  0.00  0.00    +0.279 C 
ENDBRANCH  20  24
ENDBRANCH   1  18
TORSDOF 3
