REMARK  Name = ZINC000095992390
REMARK                            x       y       z     vdW  Elec       q    Type
REMARK                         _______ _______ _______ _____ _____    ______ ____
ROOT
ATOM      1  C   LIG    1        0.043  -3.371   1.409  0.00  0.00    +0.270 C 
ATOM      2  O   LIG    1       -0.053  -3.335   2.621  0.00  0.00    -0.268 OA
ATOM      3  N   LIG    1        0.169  -4.555   0.778  0.00  0.00    -0.264 N 
ATOM      4  H   LIG    1        0.322  -4.581  -0.179  0.00  0.00    +0.157 HD
ENDROOT
BRANCH   1   5
ATOM      5  C   LIG    1        0.023  -2.122   0.632  0.00  0.00    +0.154 A 
ATOM      6  C   LIG    1        1.114  -1.347   0.276  0.00  0.00    +0.179 A 
ATOM      7  C   LIG    1        0.586  -0.275  -0.446  0.00  0.00    +0.091 A 
ATOM      8  N   LIG    1       -0.712  -0.432  -0.506  0.00  0.00    -0.174 NA
ATOM      9  C   LIG    1        1.371   0.859  -1.054  0.00  0.00    +0.070 C 
ATOM     10  N   LIG    1       -1.075  -1.498   0.112  0.00  0.00    -0.260 N 
ATOM     11  C   LIG    1       -2.455  -1.972   0.238  0.00  0.00    +0.173 C 
BRANCH   6  12
ATOM     12  N   LIG    1        2.536  -1.596   0.601  0.00  0.00    +0.061 N 
ATOM     13  O   LIG    1        3.055  -1.105   1.708  0.00  0.00    -0.126 OA
ATOM     14  O   LIG    1        3.283  -2.309  -0.216  0.00  0.00    -0.126 OA
ENDBRANCH   6  12
ENDBRANCH   1   5
BRANCH   3  15
ATOM     15  C   LIG    1        0.079  -5.744   1.502  0.00  0.00    +0.147 A 
ATOM     16  C   LIG    1       -0.136  -5.847   2.864  0.00  0.00    +0.073 A 
ATOM     17  C   LIG    1       -0.152  -7.243   3.135  0.00  0.00    +0.074 A 
ATOM     18  N   LIG    1        0.063  -7.865   1.912  0.00  0.00    -0.275 N 
ATOM     19  H   LIG    1        0.109  -8.824   1.770  0.00  0.00    +0.189 HD
ATOM     20  N   LIG    1        0.191  -6.971   0.999  0.00  0.00    -0.158 NA
BRANCH  17  21
ATOM     21  C   LIG    1       -0.339  -7.855   4.367  0.00  0.00    +0.037 A 
ATOM     22  S   LIG    1       -0.608  -7.028   5.895  0.00  0.00    -0.095 S 
ATOM     23  C   LIG    1       -0.711  -8.504   6.741  0.00  0.00    +0.046 A 
ATOM     24  C   LIG    1       -0.541  -9.592   5.898  0.00  0.00    +0.008 A 
ATOM     25  C   LIG    1       -0.338  -9.298   4.613  0.00  0.00    +0.017 A 
ENDBRANCH  17  21
ENDBRANCH   3  15
TORSDOF 4
