REMARK  Name = ZINC000069617981
REMARK                            x       y       z     vdW  Elec       q    Type
REMARK                         _______ _______ _______ _____ _____    ______ ____
ROOT
ATOM      1  C   LIG    1       -0.018   1.528   0.013  0.00  0.00    +0.035 C 
ATOM      2  C   LIG    1        0.001  -0.001   0.004  0.00  0.00    +0.159 C 
ENDROOT
BRANCH   2   3
ATOM      3  C   LIG    1        0.731  -0.502   1.224  0.00  0.00    +0.237 C 
ATOM      4  O   LIG    1        0.158  -1.212   2.023  0.00  0.00    -0.274 OA
ATOM      5  N   LIG    1        2.019  -0.161   1.426  0.00  0.00    -0.269 N 
ATOM      6  H   LIG    1        2.498   0.344   0.751  0.00  0.00    +0.156 HD
BRANCH   5   7
ATOM      7  C   LIG    1        2.662  -0.536   2.605  0.00  0.00    +0.125 A 
ATOM      8  N   LIG    1        2.033  -1.306   3.479  0.00  0.00    -0.239 NA
ATOM      9  C   LIG    1        2.607  -1.687   4.604  0.00  0.00    +0.132 A 
ATOM     10  C   LIG    1        3.891  -1.283   4.917  0.00  0.00    +0.059 A 
ATOM     11 CL   LIG    1        4.631  -1.786   6.404  0.00  0.00    -0.082 Cl
ATOM     12  C   LIG    1        4.583  -0.470   4.028  0.00  0.00    +0.025 A 
ATOM     13  C   LIG    1        3.955  -0.092   2.854  0.00  0.00    +0.045 A 
ENDBRANCH   5   7
ENDBRANCH   2   3
BRANCH   2  14
ATOM     14  N   LIG    1       -1.373  -0.507   0.014  0.00  0.00    -0.178 NA
ATOM     15  H   LIG    1       -1.845  -0.612   0.856  0.00  0.00    +0.149 HD
BRANCH  14  16
ATOM     16  S   LIG    1       -2.122  -0.902  -1.409  0.00  0.00    +0.065 S 
ATOM     17  O   LIG    1       -3.412  -1.386  -1.063  0.00  0.00    -0.153 OA
ATOM     18  O   LIG    1       -1.913   0.194  -2.289  0.00  0.00    -0.153 OA
BRANCH  16  19
ATOM     19  C   LIG    1       -1.246  -2.267  -2.098  0.00  0.00    +0.142 A 
ATOM     20  C   LIG    1       -1.521  -3.552  -1.868  0.00  0.00    +0.036 A 
ATOM     21  C   LIG    1       -0.696  -4.451  -2.522  0.00  0.00    +0.010 A 
ATOM     22  C   LIG    1        0.249  -3.896  -3.282  0.00  0.00    +0.047 A 
ATOM     23  S   LIG    1        0.119  -2.144  -3.200  0.00  0.00    -0.077 S 
ENDBRANCH  16  19
ENDBRANCH  14  16
ENDBRANCH   2  14
TORSDOF 5
