REMARK  Name = ZINC000081991257
REMARK                            x       y       z     vdW  Elec       q    Type
REMARK                         _______ _______ _______ _____ _____    ______ ____
ROOT
ATOM      1  N   LIG    1        5.192  -3.459  -5.551  0.00  0.00    -0.067 NA
ATOM      2  H   LIG    1        4.819  -3.807  -6.376  0.00  0.00    +0.182 HD
ENDROOT
BRANCH   1   3
ATOM      3  S   LIG    1        6.736  -3.858  -5.107  0.00  0.00    +0.082 S 
ATOM      4  O   LIG    1        7.382  -2.641  -4.760  0.00  0.00    -0.151 OA
ATOM      5  O   LIG    1        7.227  -4.740  -6.108  0.00  0.00    -0.151 OA
BRANCH   3   6
ATOM      6  C   LIG    1        6.624  -4.803  -3.623  0.00  0.00    +0.137 A 
ATOM      7  C   LIG    1        7.193  -4.327  -2.457  0.00  0.00    +0.031 A 
ATOM      8  C   LIG    1        7.105  -5.068  -1.293  0.00  0.00    +0.002 A 
ATOM      9  C   LIG    1        6.448  -6.284  -1.296  0.00  0.00    +0.002 A 
ATOM     10  C   LIG    1        5.879  -6.760  -2.463  0.00  0.00    +0.035 A 
ATOM     11  C   LIG    1        5.963  -6.017  -3.625  0.00  0.00    +0.152 A 
BRANCH  11  12
ATOM     12  N   LIG    1        5.353  -6.526  -4.875  0.00  0.00    +0.058 N 
ATOM     13  O   LIG    1        4.892  -7.652  -4.912  0.00  0.00    -0.126 OA
ATOM     14  O   LIG    1        5.313  -5.818  -5.865  0.00  0.00    -0.126 OA
ENDBRANCH  11  12
ENDBRANCH   3   6
ENDBRANCH   1   3
BRANCH   1  15
ATOM     15  O   LIG    1        4.416  -2.608  -4.727  0.00  0.00    -0.274 OA
BRANCH  15  16
ATOM     16  C   LIG    1        3.105  -2.348  -5.232  0.00  0.00    +0.222 C 
BRANCH  16  17
ATOM     17  C   LIG    1        2.372  -1.437  -4.282  0.00  0.00    -0.020 A 
ATOM     18  C   LIG    1        1.619  -1.974  -3.253  0.00  0.00    +0.009 A 
ATOM     19  C   LIG    1        0.950  -1.141  -2.378  0.00  0.00    +0.046 A 
ATOM     20  C   LIG    1        1.026   0.235  -2.536  0.00  0.00    +0.120 A 
ATOM     21  C   LIG    1        1.782   0.771  -3.568  0.00  0.00    +0.046 A 
ATOM     22  C   LIG    1        2.453  -0.066  -4.438  0.00  0.00    +0.009 A 
BRANCH  20  23
ATOM     23  O   LIG    1        0.365   1.056  -1.679  0.00  0.00    -0.495 OA
ATOM     24  C   LIG    1        0.488   2.462  -1.902  0.00  0.00    +0.277 C 
ENDBRANCH  20  23
ENDBRANCH  16  17
ENDBRANCH  15  16
ENDBRANCH   1  15
TORSDOF 7
