REMARK  Name = ZINC000025836802
REMARK                            x       y       z     vdW  Elec       q    Type
REMARK                         _______ _______ _______ _____ _____    ______ ____
ROOT
ATOM      1  C   LIG    1        2.827  -2.564   4.159  0.00  0.00    +0.080 A 
ATOM      2  N   LIG    1        3.453  -1.891   5.115  0.00  0.00    -0.225 NA
ATOM      3  C   LIG    1        3.842  -2.566   6.152  0.00  0.00    +0.165 A 
ATOM      4  S   LIG    1        3.403  -4.259   5.946  0.00  0.00    -0.060 S 
ATOM      5  C   LIG    1        2.682  -3.882   4.383  0.00  0.00    +0.076 A 
ENDROOT
BRANCH   1   6
ATOM      6  C   LIG    1        2.328  -1.910   2.925  0.00  0.00    +0.001 A 
ATOM      7  C   LIG    1        2.509  -0.540   2.739  0.00  0.00    +0.013 A 
ATOM      8  C   LIG    1        2.044   0.065   1.590  0.00  0.00    +0.046 A 
ATOM      9  C   LIG    1        1.395  -0.687   0.621  0.00  0.00    +0.120 A 
ATOM     10  C   LIG    1        1.209  -2.050   0.806  0.00  0.00    +0.046 A 
ATOM     11  C   LIG    1        1.677  -2.663   1.950  0.00  0.00    +0.013 A 
BRANCH   9  12
ATOM     12  O   LIG    1        0.938  -0.087  -0.510  0.00  0.00    -0.495 OA
ATOM     13  C   LIG    1        1.163   1.318  -0.635  0.00  0.00    +0.277 C 
ENDBRANCH   9  12
ENDBRANCH   1   6
BRANCH   3  14
ATOM     14  N   LIG    1        4.506  -2.036   7.251  0.00  0.00    -0.264 N 
ATOM     15  C   LIG    1        4.867  -2.839   8.272  0.00  0.00    +0.233 C 
ATOM     16  O   LIG    1        4.612  -4.024   8.230  0.00  0.00    -0.274 OA
ATOM     17  H   LIG    1        4.710  -1.088   7.284  0.00  0.00    +0.157 HD
BRANCH  15  18
ATOM     18  C   LIG    1        5.587  -2.265   9.464  0.00  0.00    +0.181 C 
BRANCH  18  19
ATOM     19  N   LIG    1        5.998  -3.354  10.360  0.00  0.00    -0.289 NA
ATOM     20  C   LIG    1        6.490  -2.826  11.640  0.00  0.00    +0.113 C 
ATOM     21  C   LIG    1        6.851  -3.994  12.563  0.00  0.00    +0.175 C 
ATOM     22  O   LIG    1        7.815  -4.827  11.914  0.00  0.00    -0.374 OA
ATOM     23  C   LIG    1        7.369  -5.359  10.664  0.00  0.00    +0.129 C 
ATOM     24  C   LIG    1        8.482  -6.204  10.041  0.00  0.00    +0.039 C 
ATOM     25  C   LIG    1        7.014  -4.205   9.722  0.00  0.00    +0.116 C 
ENDBRANCH  18  19
ENDBRANCH  15  18
ENDBRANCH   3  14
TORSDOF 5
