REMARK  Name = ZINC000082147828
REMARK                            x       y       z     vdW  Elec       q    Type
REMARK                         _______ _______ _______ _____ _____    ______ ____
ROOT
ATOM      1  C   LIG    1       -0.085  -3.668   1.823  0.00  0.00    +0.265 C 
ATOM      2  O   LIG    1       -0.517  -3.960   2.922  0.00  0.00    -0.268 OA
ATOM      3  N   LIG    1       -0.041  -4.597   0.848  0.00  0.00    -0.283 N 
ATOM      4  C   LIG    1       -0.643  -5.928   1.030  0.00  0.00    +0.092 C 
ATOM      5  C   LIG    1       -1.297  -6.016   2.410  0.00  0.00    +0.029 C 
ATOM      6  C   LIG    1        0.460  -6.976   0.916  0.00  0.00    +0.136 C 
ATOM      7  N   LIG    1        1.303  -6.714  -0.243  0.00  0.00    -0.268 N 
ATOM      8  C   LIG    1        1.422  -5.528  -0.841  0.00  0.00    +0.237 C 
ATOM      9  O   LIG    1        2.217  -5.415  -1.749  0.00  0.00    -0.274 OA
ATOM     10  C   LIG    1        0.614  -4.324  -0.440  0.00  0.00    +0.204 C 
ENDROOT
BRANCH   1  11
ATOM     11  C   LIG    1        0.391  -2.300   1.559  0.00  0.00    +0.121 A 
ATOM     12  C   LIG    1        0.710  -1.336   2.499  0.00  0.00    +0.057 A 
ATOM     13  C   LIG    1        1.104  -0.217   1.762  0.00  0.00    +0.060 A 
ATOM     14  C   LIG    1        1.548   1.107   2.328  0.00  0.00    +0.067 C 
ATOM     15  N   LIG    1        1.024  -0.524   0.492  0.00  0.00    -0.178 NA
ATOM     16  N   LIG    1        0.612  -1.731   0.338  0.00  0.00    -0.272 N 
ATOM     17  H   LIG    1        0.478  -2.171  -0.517  0.00  0.00    +0.189 HD
ENDBRANCH   1  11
BRANCH   7  18
ATOM     18  C   LIG    1        2.042  -7.783  -0.764  0.00  0.00    +0.036 A 
ATOM     19  C   LIG    1        3.313  -8.054  -0.276  0.00  0.00    +0.025 A 
ATOM     20  C   LIG    1        4.037  -9.112  -0.788  0.00  0.00    +0.022 A 
ATOM     21  C   LIG    1        3.502  -9.896  -1.795  0.00  0.00    +0.041 A 
ATOM     22  C   LIG    1        2.237  -9.624  -2.288  0.00  0.00    +0.022 A 
ATOM     23 CL   LIG    1        4.418 -11.221  -2.442  0.00  0.00    -0.084 Cl
ATOM     24  C   LIG    1        1.507  -8.570  -1.775  0.00  0.00    +0.025 A 
ENDBRANCH   7  18
TORSDOF 2
