REMARK  Name = ZINC000095988760
REMARK                            x       y       z     vdW  Elec       q    Type
REMARK                         _______ _______ _______ _____ _____    ______ ____
ROOT
ATOM      1  N   LIG    1       -1.421  -4.287  -1.488  0.00  0.00    -0.190 NA
ATOM      2  H   LIG    1       -2.139  -4.212  -2.136  0.00  0.00    +0.148 HD
ENDROOT
BRANCH   1   3
ATOM      3  S   LIG    1       -1.633  -3.720   0.053  0.00  0.00    +0.062 S 
ATOM      4  O   LIG    1       -1.236  -4.769   0.925  0.00  0.00    -0.153 OA
ATOM      5  O   LIG    1       -2.925  -3.128   0.088  0.00  0.00    -0.153 OA
BRANCH   3   6
ATOM      6  C   LIG    1       -0.479  -2.411   0.291  0.00  0.00    +0.146 A 
ATOM      7  C   LIG    1        0.607  -2.398   1.197  0.00  0.00    +0.073 A 
ATOM      8  C   LIG    1        1.223  -1.212   1.051  0.00  0.00    +0.104 A 
ATOM      9  C   LIG    1        2.438  -0.750   1.814  0.00  0.00    +0.086 C 
ATOM     10  O   LIG    1        0.569  -0.506   0.114  0.00  0.00    -0.463 OA
ATOM     11  C   LIG    1       -0.461  -1.231  -0.355  0.00  0.00    +0.128 A 
ATOM     12  C   LIG    1       -1.435  -0.793  -1.418  0.00  0.00    +0.088 C 
ENDBRANCH   3   6
ENDBRANCH   1   3
BRANCH   1  13
ATOM     13  C   LIG    1       -0.149  -4.904  -1.873  0.00  0.00    +0.111 C 
BRANCH  13  14
ATOM     14  C   LIG    1       -0.335  -5.689  -3.173  0.00  0.00    +0.023 C 
ATOM     15  C   LIG    1       -1.294  -6.856  -2.931  0.00  0.00    +0.010 C 
BRANCH  14  16
ATOM     16  C   LIG    1        1.018  -6.228  -3.641  0.00  0.00    +0.148 C 
BRANCH  16  17
ATOM     17  N   LIG    1        0.861  -6.877  -4.946  0.00  0.00    -0.268 N 
ATOM     18  N   LIG    1        0.551  -8.225  -5.163  0.00  0.00    -0.176 NA
ATOM     19  C   LIG    1        0.495  -8.429  -6.455  0.00  0.00    +0.060 A 
ATOM     20  C   LIG    1        0.766  -7.218  -7.100  0.00  0.00    +0.047 A 
ATOM     21  C   LIG    1        0.190  -9.741  -7.130  0.00  0.00    +0.067 C 
ATOM     22  C   LIG    1        0.982  -6.279  -6.149  0.00  0.00    +0.036 A 
ATOM     23  C   LIG    1        1.308  -4.828  -6.392  0.00  0.00    +0.065 C 
ENDBRANCH  16  17
ENDBRANCH  14  16
ENDBRANCH  13  14
ENDBRANCH   1  13
TORSDOF 6
