REMARK  Name = ZINC000025730041
REMARK                            x       y       z     vdW  Elec       q    Type
REMARK                         _______ _______ _______ _____ _____    ______ ____
ROOT
ATOM      1  N   LIG    1       -2.911  -8.032  -0.015  0.00  0.00    -0.335 N 
ATOM      2  H   LIG    1       -2.912  -8.513  -0.857  0.00  0.00    +0.147 HD
ENDROOT
BRANCH   1   3
ATOM      3  C   LIG    1       -2.919  -6.635  -0.008  0.00  0.00    +0.028 A 
ATOM      4  C   LIG    1       -2.917  -5.945   1.198  0.00  0.00    +0.023 A 
ATOM      5  C   LIG    1       -2.918  -4.564   1.201  0.00  0.00    +0.006 A 
ATOM      6  C   LIG    1       -2.933  -3.868   0.006  0.00  0.00    -0.039 A 
ATOM      7  C   LIG    1       -2.935  -4.552  -1.196  0.00  0.00    +0.006 A 
ATOM      8  C   LIG    1       -2.928  -5.933  -1.206  0.00  0.00    +0.023 A 
BRANCH   6   9
ATOM      9  C   LIG    1       -2.941  -2.361   0.014  0.00  0.00    +0.130 C 
BRANCH   9  10
ATOM     10  C   LIG    1       -1.523  -1.851   0.003  0.00  0.00    +0.217 C 
ATOM     11  N   LIG    1       -1.284  -0.525   0.007  0.00  0.00    -0.315 N 
ATOM     12  H   LIG    1       -2.024   0.101   0.017  0.00  0.00    +0.149 HD
ATOM     13  O   LIG    1       -0.597  -2.635  -0.010  0.00  0.00    -0.275 OA
BRANCH  11  14
ATOM     14  C   LIG    1        0.095  -0.030  -0.004  0.00  0.00    +0.101 C 
ATOM     15  C   LIG    1        0.087   1.500   0.004  0.00  0.00    +0.024 C 
ENDBRANCH  11  14
ENDBRANCH   9  10
ENDBRANCH   6   9
ENDBRANCH   1   3
BRANCH   1  16
ATOM     16  C   LIG    1       -2.901  -8.771   1.250  0.00  0.00    +0.198 C 
BRANCH  16  17
ATOM     17  C   LIG    1       -2.894 -10.251   0.968  0.00  0.00    +0.234 C 
ATOM     18  N   LIG    1       -2.885 -11.132   1.988  0.00  0.00    -0.281 N 
ATOM     19  H   LIG    1       -2.817 -10.815   2.902  0.00  0.00    +0.155 HD
ATOM     20  O   LIG    1       -2.897 -10.649  -0.178  0.00  0.00    -0.274 OA
BRANCH  18  21
ATOM     21  C   LIG    1       -2.973 -12.506   1.728  0.00  0.00    +0.076 A 
ATOM     22  C   LIG    1       -3.651 -13.342   2.612  0.00  0.00    +0.141 A 
ATOM     23  C   LIG    1       -3.740 -14.699   2.346  0.00  0.00    +0.047 A 
ATOM     24  C   LIG    1       -3.146 -15.222   1.212  0.00  0.00    +0.004 A 
ATOM     25  C   LIG    1       -2.468 -14.394   0.338  0.00  0.00    +0.002 A 
ATOM     26  C   LIG    1       -2.380 -13.038   0.592  0.00  0.00    +0.027 A 
BRANCH  22  27
ATOM     27  O   LIG    1       -4.234 -12.826   3.727  0.00  0.00    -0.493 OA
ATOM     28  C   LIG    1       -4.923 -13.741   4.581  0.00  0.00    +0.277 C 
ENDBRANCH  22  27
ENDBRANCH  18  21
ENDBRANCH  16  17
ENDBRANCH   1  16
TORSDOF 8
