REMARK  Name = ZINC000134402706
REMARK                            x       y       z     vdW  Elec       q    Type
REMARK                         _______ _______ _______ _____ _____    ______ ____
ROOT
ATOM      1  C   LIG    1       -1.296  -2.047  -0.168  0.00  0.00    +0.106 C 
ATOM      2  N   LIG    1       -0.773  -2.648   1.069  0.00  0.00    -0.278 N 
ATOM      3  C   LIG    1       -0.309  -1.878   2.073  0.00  0.00    +0.303 C 
ATOM      4  N   LIG    1        0.069  -2.442   3.237  0.00  0.00    -0.295 N 
ATOM      5  H   LIG    1        0.074  -3.408   3.328  0.00  0.00    +0.151 HD
ATOM      6  O   LIG    1       -0.232  -0.673   1.929  0.00  0.00    -0.253 OA
ATOM      7  C   LIG    1       -0.773  -4.116   1.179  0.00  0.00    +0.137 C 
ATOM      8  C   LIG    1       -2.172  -4.628   0.820  0.00  0.00    +0.179 C 
ATOM      9  O   LIG    1       -2.562  -4.086  -0.444  0.00  0.00    -0.376 OA
ATOM     10  C   LIG    1       -2.670  -2.661  -0.461  0.00  0.00    +0.182 C 
ENDROOT
BRANCH   4  11
ATOM     11  C   LIG    1        0.470  -1.598   4.364  0.00  0.00    +0.141 C 
BRANCH  11  12
ATOM     12  C   LIG    1        0.843  -2.469   5.537  0.00  0.00    -0.030 A 
ATOM     13  C   LIG    1       -0.121  -2.844   6.453  0.00  0.00    +0.005 A 
ATOM     14  C   LIG    1        0.221  -3.643   7.529  0.00  0.00    +0.001 A 
ATOM     15  C   LIG    1        1.526  -4.067   7.687  0.00  0.00    +0.012 A 
ATOM     16  C   LIG    1        2.491  -3.693   6.769  0.00  0.00    +0.055 A 
ATOM     17  C   LIG    1        2.148  -2.897   5.692  0.00  0.00    +0.017 A 
BRANCH  16  18
ATOM     18  C   LIG    1        3.915  -4.155   6.942  0.00  0.00    +0.417 C 
ATOM     19  F   LIG    1        4.013  -4.944   8.093  0.00  0.00    -0.166 F 
ATOM     20  F   LIG    1        4.754  -3.043   7.066  0.00  0.00    -0.166 F 
ATOM     21  F   LIG    1        4.299  -4.907   5.827  0.00  0.00    -0.166 F 
ENDBRANCH  16  18
ENDBRANCH  11  12
ENDBRANCH   4  11
BRANCH   1  22
ATOM     22  C   LIG    1       -1.435  -0.534   0.013  0.00  0.00    +0.056 C 
BRANCH  22  23
ATOM     23  C   LIG    1       -2.035   0.078  -1.254  0.00  0.00    +0.113 C 
ATOM     24  C   LIG    1       -2.244   1.579  -1.046  0.00  0.00    +0.037 C 
BRANCH  23  25
ATOM     25  O   LIG    1       -1.145  -0.132  -2.352  0.00  0.00    -0.392 OA
ATOM     26  H   LIG    1       -0.298   0.327  -2.265  0.00  0.00    +0.210 HD
ENDBRANCH  23  25
ENDBRANCH  22  23
ENDBRANCH   1  22
TORSDOF 6
