REMARK  Name = ZINC000084688977
REMARK                            x       y       z     vdW  Elec       q    Type
REMARK                         _______ _______ _______ _____ _____    ______ ____
ROOT
ATOM      1  N   LIG    1        1.034   3.916   4.207  0.00  0.00    -0.285 NA
ENDROOT
BRANCH   1   2
ATOM      2  C   LIG    1        2.467   3.803   3.903  0.00  0.00    +0.058 C 
ATOM      3  C   LIG    1        3.041   4.746   2.843  0.00  0.00    +0.020 C 
ATOM      4  C   LIG    1        2.856   3.260   2.526  0.00  0.00    +0.020 C 
ENDBRANCH   1   2
BRANCH   1   5
ATOM      5  C   LIG    1        0.567   2.757   4.979  0.00  0.00    +0.159 C 
BRANCH   5   6
ATOM      6  C   LIG    1        0.656   1.517   4.128  0.00  0.00    +0.119 A 
ATOM      7  C   LIG    1        1.720   0.698   4.041  0.00  0.00    +0.046 A 
ATOM      8  C   LIG    1        1.372  -0.330   3.135  0.00  0.00    +0.045 A 
ATOM      9  C   LIG    1        0.116  -0.078   2.723  0.00  0.00    +0.109 A 
ATOM     10  O   LIG    1       -0.310   1.045   3.324  0.00  0.00    -0.463 OA
BRANCH   9  11
ATOM     11  C   LIG    1       -0.676  -0.911   1.748  0.00  0.00    +0.058 C 
ATOM     12  C   LIG    1       -2.154  -0.563   1.559  0.00  0.00    +0.015 C 
ATOM     13  C   LIG    1       -1.144  -0.235   0.458  0.00  0.00    -0.003 C 
ATOM     14  C   LIG    1       -0.772   1.236   0.256  0.00  0.00    +0.008 C 
ENDBRANCH   9  11
ENDBRANCH   5   6
ENDBRANCH   1   5
BRANCH   1  15
ATOM     15  C   LIG    1        0.743   5.171   4.912  0.00  0.00    +0.161 C 
BRANCH  15  16
ATOM     16  C   LIG    1        0.852   6.325   3.950  0.00  0.00    +0.150 A 
ATOM     17  N   LIG    1        1.975   7.018   3.877  0.00  0.00    -0.198 NA
ATOM     18  C   LIG    1        2.075   8.039   3.028  0.00  0.00    +0.217 A 
ATOM     19  N   LIG    1        1.045   8.360   2.253  0.00  0.00    -0.181 NA
ATOM     20  C   LIG    1       -0.082   7.661   2.329  0.00  0.00    +0.222 A 
ATOM     21  N   LIG    1       -0.173   6.638   3.176  0.00  0.00    -0.198 NA
BRANCH  18  22
ATOM     22  N   LIG    1        3.248   8.762   2.952  0.00  0.00    -0.327 N 
ATOM     23  H   LIG    1        4.000   8.527   3.518  0.00  0.00    +0.145 HD
ATOM     24  H   LIG    1        3.321   9.505   2.333  0.00  0.00    +0.145 HD
ENDBRANCH  18  22
BRANCH  20  25
ATOM     25  N   LIG    1       -1.155   7.990   1.526  0.00  0.00    -0.306 N 
ATOM     26  C   LIG    1       -2.397   7.218   1.611  0.00  0.00    +0.132 C 
ATOM     27  C   LIG    1       -1.052   9.111   0.589  0.00  0.00    +0.132 C 
ENDBRANCH  20  25
ENDBRANCH  15  16
ENDBRANCH   1  15
TORSDOF 8
