REMARK  Name = ZINC000042652250
REMARK                            x       y       z     vdW  Elec       q    Type
REMARK                         _______ _______ _______ _____ _____    ______ ____
ROOT
ATOM      1  C   LIG    1        1.692  -3.235  -0.022  0.00  0.00    +0.140 C 
ENDROOT
BRANCH   1   2
ATOM      2  N   LIG    1        2.834  -2.803   0.794  0.00  0.00    -0.287 NA
ATOM      3  C   LIG    1        2.440  -2.624   2.199  0.00  0.00    +0.113 C 
ATOM      4  C   LIG    1        3.670  -2.232   3.023  0.00  0.00    +0.175 C 
ATOM      5  O   LIG    1        4.252  -1.049   2.469  0.00  0.00    -0.377 OA
ATOM      6  C   LIG    1        4.648  -1.188   1.102  0.00  0.00    +0.175 C 
ATOM      7  C   LIG    1        3.428  -1.569   0.259  0.00  0.00    +0.113 C 
ENDBRANCH   1   2
BRANCH   1   8
ATOM      8  C   LIG    1        0.557  -2.258   0.145  0.00  0.00    +0.124 A 
ATOM      9  C   LIG    1       -0.746  -2.575   0.247  0.00  0.00    +0.046 A 
ATOM     10  C   LIG    1       -1.454  -1.360   0.389  0.00  0.00    +0.045 A 
ATOM     11  C   LIG    1       -0.542  -0.372   0.365  0.00  0.00    +0.102 A 
ATOM     12  C   LIG    1       -0.835   1.101   0.484  0.00  0.00    +0.086 C 
ATOM     13  O   LIG    1        0.674  -0.921   0.212  0.00  0.00    -0.463 OA
ENDBRANCH   1   8
BRANCH   1  14
ATOM     14  C   LIG    1        2.108  -3.287  -1.494  0.00  0.00    +0.132 C 
BRANCH  14  15
ATOM     15  N   LIG    1        3.266  -4.170  -1.643  0.00  0.00    -0.297 N 
ATOM     16  H   LIG    1        3.593  -4.674  -0.881  0.00  0.00    +0.150 HD
ATOM     17  C   LIG    1        3.878  -4.284  -2.838  0.00  0.00    +0.305 C 
ATOM     18  N   LIG    1        4.944  -5.097  -2.976  0.00  0.00    -0.248 N 
ATOM     19  H   LIG    1        5.271  -5.601  -2.214  0.00  0.00    +0.158 HD
ATOM     20  O   LIG    1        3.468  -3.652  -3.793  0.00  0.00    -0.252 OA
BRANCH  18  21
ATOM     21  C   LIG    1        5.575  -5.214  -4.209  0.00  0.00    +0.165 A 
ATOM     22  S   LIG    1        6.932  -6.204  -4.525  0.00  0.00    -0.060 S 
ATOM     23  C   LIG    1        6.938  -5.678  -6.206  0.00  0.00    +0.068 A 
ATOM     24  C   LIG    1        5.936  -4.812  -6.372  0.00  0.00    +0.120 A 
ATOM     25  N   LIG    1        5.223  -4.583  -5.285  0.00  0.00    -0.233 NA
ENDBRANCH  18  21
ENDBRANCH  14  15
ENDBRANCH   1  14
TORSDOF 5
