REMARK  Name = ZINC000222098157
REMARK                            x       y       z     vdW  Elec       q    Type
REMARK                         _______ _______ _______ _____ _____    ______ ____
ROOT
ATOM      1  S   LIG    1       -5.013  -2.779  -0.163  0.00  0.00    +0.061 S 
ATOM      2  O   LIG    1       -4.117  -3.867   0.013  0.00  0.00    -0.153 OA
ATOM      3  O   LIG    1       -4.666  -1.591  -0.861  0.00  0.00    -0.153 OA
ENDROOT
BRANCH   1   4
ATOM      4  N   LIG    1       -5.484  -2.311   1.354  0.00  0.00    -0.171 NA
ATOM      5  C   LIG    1       -5.097  -3.091   2.539  0.00  0.00    +0.125 C 
ATOM      6  C   LIG    1       -6.356  -3.380   3.364  0.00  0.00    +0.101 C 
ATOM      7  N   LIG    1       -7.050  -2.118   3.651  0.00  0.00    -0.300 NA
ATOM      8  C   LIG    1       -8.165  -2.330   4.582  0.00  0.00    +0.105 C 
ATOM      9  C   LIG    1       -7.511  -1.470   2.415  0.00  0.00    +0.072 C 
ATOM     10  C   LIG    1       -8.293  -0.203   2.765  0.00  0.00    +0.026 C 
ATOM     11  C   LIG    1       -6.295  -1.100   1.552  0.00  0.00    +0.094 C 
ATOM     12  C   LIG    1       -6.769  -0.568   0.198  0.00  0.00    +0.027 C 
ENDBRANCH   1   4
BRANCH   1  13
ATOM     13  C   LIG    1       -6.436  -3.433  -0.972  0.00  0.00    +0.109 A 
ATOM     14  C   LIG    1       -6.994  -4.620  -0.534  0.00  0.00    -0.021 A 
ATOM     15  C   LIG    1       -6.385  -5.352   0.633  0.00  0.00    +0.046 C 
ATOM     16  C   LIG    1       -8.109  -5.134  -1.167  0.00  0.00    +0.051 A 
ATOM     17  C   LIG    1       -8.669  -4.459  -2.242  0.00  0.00    +0.123 A 
ATOM     18  C   LIG    1       -8.104  -3.271  -2.682  0.00  0.00    -0.007 A 
ATOM     19  C   LIG    1       -8.709  -2.536  -3.850  0.00  0.00    +0.047 C 
ATOM     20  C   LIG    1       -6.992  -2.758  -2.043  0.00  0.00    +0.035 A 
BRANCH  17  21
ATOM     21  O   LIG    1       -9.765  -4.964  -2.866  0.00  0.00    -0.495 OA
ATOM     22  C   LIG    1      -10.293  -6.191  -2.359  0.00  0.00    +0.277 C 
ENDBRANCH  17  21
ENDBRANCH   1  13
TORSDOF 3
