REMARK  Name = ZINC000069615891
REMARK                            x       y       z     vdW  Elec       q    Type
REMARK                         _______ _______ _______ _____ _____    ______ ____
ROOT
ATOM      1  N   LIG    1        0.020  -0.016   2.416  0.00  0.00    -0.329 N 
ATOM      2  C   LIG    1       -1.179   0.392   3.169  0.00  0.00    +0.105 C 
ATOM      3  C   LIG    1       -0.699   0.528   4.636  0.00  0.00    +0.025 C 
ATOM      4  C   LIG    1        0.724   1.115   4.444  0.00  0.00    +0.025 C 
ATOM      5  C   LIG    1        1.213   0.418   3.157  0.00  0.00    +0.110 C 
ENDROOT
BRANCH   1   6
ATOM      6  C   LIG    1        0.023  -0.706   1.201  0.00  0.00    +0.034 A 
ATOM      7  C   LIG    1        0.035  -2.094   1.190  0.00  0.00    +0.043 A 
ATOM      8  C   LIG    1        0.039  -2.774  -0.014  0.00  0.00    +0.043 A 
ATOM      9 CL   LIG    1        0.061  -4.510  -0.031  0.00  0.00    -0.083 Cl
ATOM     10  C   LIG    1        0.024  -2.071  -1.206  0.00  0.00    +0.020 A 
ATOM     11  C   LIG    1        0.006  -0.688  -1.197  0.00  0.00    +0.006 A 
ATOM     12  C   LIG    1        0.002  -0.004   0.002  0.00  0.00    -0.029 A 
ATOM     13  C   LIG    1       -0.018   1.503   0.010  0.00  0.00    +0.045 C 
ENDBRANCH   1   6
BRANCH   4  14
ATOM     14  C   LIG    1        1.622   0.756   5.630  0.00  0.00    +0.109 C 
BRANCH  14  15
ATOM     15  N   LIG    1        1.133   1.429   6.835  0.00  0.00    -0.313 N 
ATOM     16  C   LIG    1        1.772   1.258   8.009  0.00  0.00    +0.237 C 
ATOM     17  O   LIG    1        2.752   0.547   8.068  0.00  0.00    -0.273 OA
ATOM     18  H   LIG    1        0.348   1.998   6.788  0.00  0.00    +0.149 HD
BRANCH  16  19
ATOM     19  C   LIG    1        1.268   1.951   9.249  0.00  0.00    +0.191 C 
ATOM     20  C   LIG    1       -0.165   1.499   9.539  0.00  0.00    +0.042 C 
BRANCH  19  21
ATOM     21  N   LIG    1        2.128   1.607  10.384  0.00  0.00    -0.240 N 
ATOM     22  C   LIG    1        2.032   0.518  11.166  0.00  0.00    +0.219 A 
ATOM     23  N   LIG    1        2.982   0.578  12.064  0.00  0.00    -0.223 NA
ATOM     24  C   LIG    1        3.701   1.686  11.888  0.00  0.00    +0.245 A 
ATOM     25  N   LIG    1        3.220   2.346  10.868  0.00  0.00    -0.158 NA
ENDBRANCH  19  21
ENDBRANCH  16  19
ENDBRANCH  14  15
ENDBRANCH   4  14
TORSDOF 5
