REMARK  Name = ZINC000069616857
REMARK                            x       y       z     vdW  Elec       q    Type
REMARK                         _______ _______ _______ _____ _____    ______ ____
ROOT
ATOM      1  N   LIG    1        1.153  -4.171   4.158  0.00  0.00    -0.210 N 
ATOM      2  C   LIG    1        2.375  -4.619   4.486  0.00  0.00    +0.319 C 
ATOM      3  O   LIG    1        3.019  -4.218   5.434  0.00  0.00    -0.252 OA
ATOM      4  N   LIG    1        2.790  -5.574   3.637  0.00  0.00    -0.210 N 
ATOM      5  C   LIG    1        1.835  -5.775   2.704  0.00  0.00    +0.310 C 
ATOM      6  O   LIG    1        1.866  -6.557   1.778  0.00  0.00    -0.264 OA
ATOM      7  C   LIG    1        0.728  -4.826   3.056  0.00  0.00    +0.310 C 
ATOM      8  O   LIG    1       -0.327  -4.679   2.474  0.00  0.00    -0.264 OA
ENDROOT
BRANCH   4   9
ATOM      9  C   LIG    1        4.073  -6.277   3.709  0.00  0.00    +0.113 C 
ATOM     10  C   LIG    1        3.832  -7.787   3.641  0.00  0.00    +0.034 C 
BRANCH   9  11
ATOM     11  C   LIG    1        4.942  -5.856   2.552  0.00  0.00    -0.027 A 
ATOM     12  C   LIG    1        6.319  -5.903   2.669  0.00  0.00    +0.005 A 
ATOM     13  C   LIG    1        7.116  -5.521   1.606  0.00  0.00    +0.000 A 
ATOM     14  C   LIG    1        6.537  -5.082   0.430  0.00  0.00    +0.000 A 
ATOM     15  C   LIG    1        5.161  -5.029   0.316  0.00  0.00    +0.000 A 
ATOM     16  C   LIG    1        4.363  -5.416   1.377  0.00  0.00    +0.005 A 
ENDBRANCH   9  11
ENDBRANCH   4   9
BRANCH   1  17
ATOM     17  C   LIG    1        0.405  -3.134   4.874  0.00  0.00    +0.198 C 
BRANCH  17  18
ATOM     18  C   LIG    1        0.735  -1.784   4.293  0.00  0.00    +0.189 A 
ATOM     19  N   LIG    1        1.694  -0.995   4.677  0.00  0.00    -0.060 NA
ATOM     20  O   LIG    1        1.701   0.015   4.006  0.00  0.00    -0.338 OA
ATOM     21  C   LIG    1        0.711  -0.030   3.109  0.00  0.00    +0.230 A 
ATOM     22  N   LIG    1        0.093  -1.173   3.281  0.00  0.00    -0.194 NA
BRANCH  21  23
ATOM     23  C   LIG    1        0.374   1.028   2.090  0.00  0.00    +0.072 C 
ATOM     24  C   LIG    1        0.037   2.337   2.807  0.00  0.00    +0.017 C 
ATOM     25  C   LIG    1        1.574   1.246   1.166  0.00  0.00    +0.017 C 
ENDBRANCH  21  23
ENDBRANCH  17  18
ENDBRANCH   1  17
TORSDOF 5
