REMARK  Name = ZINC000175695313
REMARK                            x       y       z     vdW  Elec       q    Type
REMARK                         _______ _______ _______ _____ _____    ______ ____
ROOT
ATOM      1  N   LIG    1       -1.783  -1.303   3.143  0.00  0.00    -0.296 N 
ATOM      2  H   LIG    1       -1.432  -2.158   3.438  0.00  0.00    +0.151 HD
ATOM      3  C   LIG    1       -3.111  -1.139   2.984  0.00  0.00    +0.302 C 
ATOM      4  N   LIG    1       -3.952  -2.162   3.235  0.00  0.00    -0.284 N 
ATOM      5  C   LIG    1       -3.589  -3.522   3.695  0.00  0.00    +0.114 C 
ATOM      6  C   LIG    1       -4.553  -4.436   2.897  0.00  0.00    +0.022 C 
ATOM      7  C   LIG    1       -5.860  -3.612   2.865  0.00  0.00    +0.078 C 
ATOM      8  C   LIG    1       -4.024  -4.676   1.481  0.00  0.00    +0.011 C 
ATOM      9  C   LIG    1       -5.422  -2.154   3.113  0.00  0.00    +0.128 C 
ATOM     10  O   LIG    1       -3.551  -0.067   2.614  0.00  0.00    -0.253 OA
ENDROOT
BRANCH   7  11
ATOM     11  N   LIG    1       -6.511  -3.738   1.554  0.00  0.00    -0.293 NA
ATOM     12  C   LIG    1       -7.574  -2.734   1.394  0.00  0.00    +0.113 C 
ATOM     13  C   LIG    1       -8.184  -2.863  -0.004  0.00  0.00    +0.175 C 
ATOM     14  O   LIG    1       -8.667  -4.196  -0.187  0.00  0.00    -0.377 OA
ATOM     15  C   LIG    1       -7.659  -5.200  -0.039  0.00  0.00    +0.175 C 
ATOM     16  C   LIG    1       -7.043  -5.095   1.359  0.00  0.00    +0.113 C 
ENDBRANCH   7  11
BRANCH   1  17
ATOM     17  C   LIG    1       -0.869  -0.191   2.870  0.00  0.00    +0.076 C 
ATOM     18  C   LIG    1       -0.760   0.695   4.112  0.00  0.00    +0.028 C 
BRANCH  17  19
ATOM     19  C   LIG    1        0.513  -0.742   2.513  0.00  0.00    +0.057 C 
BRANCH  19  20
ATOM     20  C   LIG    1        0.428  -1.514   1.222  0.00  0.00    -0.043 A 
ATOM     21  C   LIG    1        0.251  -2.885   1.246  0.00  0.00    +0.004 A 
ATOM     22  C   LIG    1        0.173  -3.593   0.061  0.00  0.00    +0.000 A 
ATOM     23  C   LIG    1        0.268  -2.929  -1.148  0.00  0.00    +0.000 A 
ATOM     24  C   LIG    1        0.440  -1.558  -1.172  0.00  0.00    +0.003 A 
ATOM     25  C   LIG    1        0.517  -0.850   0.012  0.00  0.00    -0.047 A 
ATOM     26  C   LIG    1        0.705   0.645  -0.014  0.00  0.00    +0.044 C 
ENDBRANCH  19  20
ENDBRANCH  17  19
ENDBRANCH   1  17
TORSDOF 4
