REMARK  Name = ZINC000025697252
REMARK                            x       y       z     vdW  Elec       q    Type
REMARK                         _______ _______ _______ _____ _____    ______ ____
ROOT
ATOM      1  C   LIG    1        0.081  -6.832  -2.586  0.00  0.00    -0.010 A 
ATOM      2  C   LIG    1        1.281  -7.133  -3.206  0.00  0.00    +0.008 A 
ATOM      3  C   LIG    1        1.289  -7.661  -4.480  0.00  0.00    +0.013 A 
ATOM      4  C   LIG    1        0.084  -7.883  -5.148  0.00  0.00    +0.037 A 
ATOM      5  C   LIG    1       -1.123  -7.572  -4.519  0.00  0.00    +0.013 A 
ATOM      6  C   LIG    1       -1.117  -7.049  -3.243  0.00  0.00    +0.008 A 
ENDROOT
BRANCH   4   7
ATOM      7  C   LIG    1        0.086  -8.443  -6.516  0.00  0.00    +0.247 C 
ATOM      8  O   LIG    1       -0.961  -8.770  -7.040  0.00  0.00    -0.270 OA
ATOM      9  N   LIG    1        1.248  -8.592  -7.182  0.00  0.00    -0.298 N 
ATOM     10  C   LIG    1        2.589  -8.347  -6.631  0.00  0.00    +0.108 C 
ATOM     11  C   LIG    1        3.605  -8.622  -7.759  0.00  0.00    +0.020 C 
ATOM     12  C   LIG    1        2.750  -8.458  -9.044  0.00  0.00    +0.020 C 
ATOM     13  C   LIG    1        1.385  -9.033  -8.582  0.00  0.00    +0.108 C 
ENDBRANCH   4   7
BRANCH   1  14
ATOM     14  C   LIG    1        0.080  -6.261  -1.191  0.00  0.00    +0.268 C 
BRANCH  14  15
ATOM     15  O   LIG    1        0.128  -4.811  -1.262  0.00  0.00    -0.455 OA
BRANCH  15  16
ATOM     16  C   LIG    1        0.133  -4.142  -0.093  0.00  0.00    +0.360 C 
ATOM     17  O   LIG    1        0.098  -4.752   0.956  0.00  0.00    -0.243 OA
BRANCH  16  18
ATOM     18  C   LIG    1        0.181  -2.662  -0.088  0.00  0.00    +0.166 A 
ATOM     19  C   LIG    1        0.186  -1.967   1.121  0.00  0.00    +0.146 A 
ATOM     20  N   LIG    1        0.235  -0.647   1.120  0.00  0.00    -0.256 NA
ATOM     21  C   LIG    1        0.267   0.014  -0.023  0.00  0.00    +0.056 A 
ATOM     22  C   LIG    1        0.316   1.520  -0.019  0.00  0.00    +0.067 C 
ATOM     23  C   LIG    1        0.262  -0.675  -1.228  0.00  0.00    +0.134 A 
ATOM     24  N   LIG    1        0.219  -1.992  -1.237  0.00  0.00    -0.245 NA
ENDBRANCH  16  18
ENDBRANCH  15  16
ENDBRANCH  14  15
ENDBRANCH   1  14
TORSDOF 5
