REMARK  Name = ZINC000084689285
REMARK                            x       y       z     vdW  Elec       q    Type
REMARK                         _______ _______ _______ _____ _____    ______ ____
ROOT
ATOM      1  C   LIG    1        5.630  -2.254   0.070  0.00  0.00    +0.042 A 
ATOM      2  C   LIG    1        6.248  -1.348   0.933  0.00  0.00    +0.013 A 
ATOM      3  C   LIG    1        7.611  -1.146   0.855  0.00  0.00    +0.001 A 
ATOM      4  C   LIG    1        8.364  -1.838  -0.077  0.00  0.00    +0.000 A 
ATOM      5  C   LIG    1        7.756  -2.736  -0.937  0.00  0.00    +0.006 A 
ATOM      6  C   LIG    1        6.396  -2.952  -0.865  0.00  0.00    -0.017 A 
ENDROOT
BRANCH   1   7
ATOM      7  C   LIG    1        4.170  -2.476   0.149  0.00  0.00    +0.247 C 
ATOM      8  N   LIG    1        3.329  -1.423   0.185  0.00  0.00    -0.298 N 
ATOM      9  C   LIG    1        3.851  -0.063   0.028  0.00  0.00    +0.132 C 
ATOM     10  O   LIG    1        3.729  -3.608   0.181  0.00  0.00    -0.270 OA
BRANCH   8  11
ATOM     11  C   LIG    1        1.894  -1.639   0.382  0.00  0.00    +0.076 C 
ATOM     12  C   LIG    1        1.673  -2.488   1.636  0.00  0.00    +0.023 C 
ATOM     13  C   LIG    1        2.251  -1.761   2.852  0.00  0.00    +0.005 C 
ATOM     14  C   LIG    1        1.551  -0.411   3.020  0.00  0.00    -0.014 C 
ATOM     15  C   LIG    1        2.129   0.315   4.236  0.00  0.00    +0.007 C 
ATOM     16  C   LIG    1        1.772   0.437   1.766  0.00  0.00    +0.005 C 
ATOM     17  C   LIG    1        1.193  -0.289   0.550  0.00  0.00    +0.023 C 
ENDBRANCH   8  11
ENDBRANCH   1   7
BRANCH   6  18
ATOM     18  C   LIG    1        5.736  -3.932  -1.801  0.00  0.00    +0.153 C 
BRANCH  18  19
ATOM     19  N   LIG    1        5.190  -3.212  -2.954  0.00  0.00    -0.220 N 
ATOM     20  C   LIG    1        3.908  -2.810  -3.058  0.00  0.00    +0.240 C 
ATOM     21  O   LIG    1        3.022  -2.969  -2.245  0.00  0.00    -0.273 OA
ATOM     22  C   LIG    1        3.803  -2.116  -4.402  0.00  0.00    +0.202 C 
ATOM     23  N   LIG    1        5.166  -2.218  -4.951  0.00  0.00    -0.290 N 
ATOM     24  H   LIG    1        5.473  -1.879  -5.806  0.00  0.00    +0.151 HD
ATOM     25  C   LIG    1        5.904  -2.869  -4.033  0.00  0.00    +0.309 C 
ATOM     26  O   LIG    1        7.084  -3.122  -4.170  0.00  0.00    -0.252 OA
ENDBRANCH  18  19
ENDBRANCH   6  18
TORSDOF 4
