REMARK  Name = ZINC000012984905
REMARK                            x       y       z     vdW  Elec       q    Type
REMARK                         _______ _______ _______ _____ _____    ______ ____
ROOT
ATOM      1  O   LIG    1        0.002  -0.004   0.002  0.00  0.00    -0.253 OA
ATOM      2  C   LIG    1       -0.014   1.212   0.009  0.00  0.00    +0.300 C 
ATOM      3  N   LIG    1       -1.191   1.870   0.018  0.00  0.00    -0.299 N 
ATOM      4  H   LIG    1       -1.204   2.840   0.023  0.00  0.00    +0.150 HD
ATOM      5  N   LIG    1        1.143   1.901   0.001  0.00  0.00    -0.298 N 
ATOM      6  H   LIG    1        1.130   2.871   0.007  0.00  0.00    +0.150 HD
ENDROOT
BRANCH   3   7
ATOM      7  C   LIG    1       -2.449   1.120   0.020  0.00  0.00    +0.110 C 
BRANCH   7   8
ATOM      8  C   LIG    1       -3.626   2.098   0.031  0.00  0.00    +0.056 C 
BRANCH   8   9
ATOM      9  C   LIG    1       -4.920   1.327   0.033  0.00  0.00    -0.021 A 
ATOM     10  C   LIG    1       -5.611   0.787   1.206  0.00  0.00    +0.003 A 
ATOM     11  C   LIG    1       -5.353   0.806   2.578  0.00  0.00    +0.010 A 
ATOM     12  C   LIG    1       -6.223   0.199   3.440  0.00  0.00    +0.001 A 
ATOM     13  C   LIG    1       -7.364  -0.431   2.963  0.00  0.00    +0.002 A 
ATOM     14  C   LIG    1       -7.641  -0.456   1.614  0.00  0.00    +0.026 A 
ATOM     15  C   LIG    1       -6.770   0.155   0.718  0.00  0.00    +0.047 A 
ATOM     16  N   LIG    1       -6.765   0.299  -0.651  0.00  0.00    -0.360 N 
ATOM     17  H   LIG    1       -7.447  -0.044  -1.250  0.00  0.00    +0.165 HD
ATOM     18  C   LIG    1       -5.657   1.000  -1.041  0.00  0.00    +0.087 A 
ENDBRANCH   8   9
ENDBRANCH   7   8
ENDBRANCH   3   7
BRANCH   5  19
ATOM     19  C   LIG    1        2.422   1.186  -0.015  0.00  0.00    +0.124 C 
BRANCH  19  20
ATOM     20  C   LIG    1        3.571   2.196  -0.020  0.00  0.00    +0.123 C 
BRANCH  20  21
ATOM     21  N   LIG    1        4.850   1.481  -0.036  0.00  0.00    -0.307 N 
ATOM     22  H   LIG    1        4.863   0.511  -0.042  0.00  0.00    +0.149 HD
ATOM     23  C   LIG    1        6.008   2.171  -0.044  0.00  0.00    +0.279 C 
ATOM     24  O   LIG    1        5.991   3.388  -0.037  0.00  0.00    -0.267 OA
BRANCH  23  25
ATOM     25  C   LIG    1        7.287   1.455  -0.060  0.00  0.00    +0.189 A 
ATOM     26  C   LIG    1        8.527   2.027  -0.063  0.00  0.00    +0.054 A 
ATOM     27  C   LIG    1        9.457   0.976  -0.079  0.00  0.00    +0.042 A 
ATOM     28  C   LIG    1        8.753  -0.177  -0.085  0.00  0.00    +0.196 A 
ATOM     29  O   LIG    1        7.446   0.115  -0.068  0.00  0.00    -0.458 OA
ENDBRANCH  23  25
ENDBRANCH  20  21
ENDBRANCH  19  20
ENDBRANCH   5  19
TORSDOF 7
