REMARK  Name = ZINC000025686227
REMARK                            x       y       z     vdW  Elec       q    Type
REMARK                         _______ _______ _______ _____ _____    ______ ____
ROOT
ATOM      1  C   LIG    1        0.086  -5.863   4.956  0.00  0.00    +0.160 A 
ATOM      2  S   LIG    1       -0.183  -7.162   6.113  0.00  0.00    -0.024 S 
ATOM      3  C   LIG    1        1.498  -7.068   6.628  0.00  0.00    +0.187 A 
ATOM      4  N   LIG    1        2.098  -6.138   5.955  0.00  0.00    -0.125 NA
ATOM      5  N   LIG    1        1.320  -5.473   5.033  0.00  0.00    -0.133 NA
ENDROOT
BRANCH   3   6
ATOM      6  N   LIG    1        2.086  -7.862   7.606  0.00  0.00    -0.292 N 
ATOM      7  H   LIG    1        1.586  -8.593   8.003  0.00  0.00    +0.154 HD
BRANCH   6   8
ATOM      8  C   LIG    1        3.397  -7.608   8.017  0.00  0.00    +0.033 A 
ATOM      9  C   LIG    1        4.198  -8.649   8.471  0.00  0.00    +0.023 A 
ATOM     10  C   LIG    1        5.494  -8.394   8.876  0.00  0.00    +0.002 A 
ATOM     11  C   LIG    1        5.993  -7.105   8.832  0.00  0.00    +0.000 A 
ATOM     12  C   LIG    1        5.198  -6.067   8.381  0.00  0.00    +0.002 A 
ATOM     13  C   LIG    1        3.904  -6.316   7.968  0.00  0.00    +0.023 A 
ENDBRANCH   6   8
ENDBRANCH   3   6
BRANCH   1  14
ATOM     14  S   LIG    1       -1.130  -5.195   3.870  0.00  0.00    -0.088 S 
BRANCH  14  15
ATOM     15  C   LIG    1       -0.213  -3.917   2.967  0.00  0.00    +0.172 C 
BRANCH  15  16
ATOM     16  C   LIG    1       -1.131  -3.241   1.982  0.00  0.00    +0.226 C 
ATOM     17  O   LIG    1       -2.290  -3.587   1.897  0.00  0.00    -0.275 OA
ATOM     18  N   LIG    1       -0.664  -2.251   1.194  0.00  0.00    -0.298 N 
ATOM     19  C   LIG    1        0.738  -1.816   1.280  0.00  0.00    +0.123 C 
ATOM     20  C   LIG    1        0.766  -0.293   1.445  0.00  0.00    +0.103 C 
ATOM     21  N   LIG    1       -0.011   0.327   0.364  0.00  0.00    -0.302 NA
ATOM     22  C   LIG    1       -1.425  -0.065   0.432  0.00  0.00    +0.103 C 
ATOM     23  C   LIG    1        0.132   1.789   0.385  0.00  0.00    +0.105 C 
ATOM     24  C   LIG    1       -1.543  -1.579   0.226  0.00  0.00    +0.123 C 
ENDBRANCH  15  16
ENDBRANCH  14  15
ENDBRANCH   1  14
TORSDOF 5
