REMARK  Name = ZINC000025835036
REMARK                            x       y       z     vdW  Elec       q    Type
REMARK                         _______ _______ _______ _____ _____    ______ ____
ROOT
ATOM      1  C   LIG    1       -1.438   1.337   0.272  0.00  0.00    +0.069 C 
ATOM      2  C   LIG    1       -0.848  -0.044   0.144  0.00  0.00    +0.082 A 
ATOM      3  C   LIG    1       -0.219  -0.767   1.169  0.00  0.00    +0.078 A 
ATOM      4  C   LIG    1        0.170  -1.962   0.657  0.00  0.00    +0.063 A 
ATOM      5  C   LIG    1        0.883  -3.061   1.403  0.00  0.00    +0.068 C 
ATOM      6  N   LIG    1       -0.195  -1.986  -0.653  0.00  0.00    -0.235 N 
ATOM      7  N   LIG    1       -0.830  -0.771  -0.944  0.00  0.00    -0.170 NA
ENDROOT
BRANCH   6   8
ATOM      8  C   LIG    1        0.025  -3.038  -1.553  0.00  0.00    +0.066 A 
ATOM      9  C   LIG    1        1.178  -3.805  -1.457  0.00  0.00    +0.028 A 
ATOM     10  C   LIG    1        1.392  -4.841  -2.345  0.00  0.00    +0.002 A 
ATOM     11  C   LIG    1        0.459  -5.115  -3.329  0.00  0.00    +0.000 A 
ATOM     12  C   LIG    1       -0.690  -4.352  -3.427  0.00  0.00    +0.002 A 
ATOM     13  C   LIG    1       -0.912  -3.318  -2.538  0.00  0.00    +0.028 A 
ENDBRANCH   6   8
BRANCH   3  14
ATOM     14  N   LIG    1       -0.033  -0.333   2.495  0.00  0.00    -0.282 N 
ATOM     15  H   LIG    1       -0.229  -0.931   3.233  0.00  0.00    +0.155 HD
ATOM     16  C   LIG    1        0.418   0.914   2.739  0.00  0.00    +0.231 C 
ATOM     17  O   LIG    1        0.599   1.684   1.819  0.00  0.00    -0.274 OA
BRANCH  16  18
ATOM     18  C   LIG    1        0.698   1.350   4.154  0.00  0.00    +0.181 C 
BRANCH  18  19
ATOM     19  N   LIG    1        1.023   2.783   4.169  0.00  0.00    -0.289 NA
ATOM     20  C   LIG    1        1.463   3.209   5.505  0.00  0.00    +0.113 C 
ATOM     21  C   LIG    1        1.847   4.690   5.462  0.00  0.00    +0.175 C 
ATOM     22  O   LIG    1        0.734   5.453   4.989  0.00  0.00    -0.374 OA
ATOM     23  C   LIG    1        0.280   5.065   3.690  0.00  0.00    +0.129 C 
ATOM     24  C   LIG    1       -0.928   5.916   3.295  0.00  0.00    +0.039 C 
ATOM     25  C   LIG    1       -0.120   3.587   3.715  0.00  0.00    +0.116 C 
ENDBRANCH  18  19
ENDBRANCH  16  18
ENDBRANCH   3  14
TORSDOF 4
