REMARK  Name = ZINC000058193393
REMARK                            x       y       z     vdW  Elec       q    Type
REMARK                         _______ _______ _______ _____ _____    ______ ____
ROOT
ATOM      1  N   LIG    1       -4.728  -4.405  -0.002  0.00  0.00    -0.151 N 
ATOM      2  N   LIG    1       -5.364  -3.758   0.911  0.00  0.00    -0.045 NA
ATOM      3  N   LIG    1       -6.615  -3.719   0.601  0.00  0.00    -0.108 NA
ATOM      4  C   LIG    1       -6.759  -4.374  -0.559  0.00  0.00    +0.205 A 
ATOM      5  N   LIG    1       -5.558  -4.786  -0.911  0.00  0.00    -0.130 NA
ENDROOT
BRANCH   4   6
ATOM      6  C   LIG    1       -8.024  -4.588  -1.306  0.00  0.00    +0.023 A 
ATOM      7  C   LIG    1       -9.224  -4.084  -0.807  0.00  0.00    +0.018 A 
ATOM      8  C   LIG    1      -10.396  -4.281  -1.507  0.00  0.00    -0.015 A 
ATOM      9  C   LIG    1      -11.693  -3.731  -0.971  0.00  0.00    +0.047 C 
ATOM     10  C   LIG    1      -10.384  -4.988  -2.698  0.00  0.00    +0.126 A 
ATOM     11  C   LIG    1       -9.195  -5.496  -3.195  0.00  0.00    +0.039 A 
ATOM     12  F   LIG    1      -11.536  -5.183  -3.377  0.00  0.00    -0.205 F 
ATOM     13  C   LIG    1       -8.016  -5.299  -2.504  0.00  0.00    +0.014 A 
ENDBRANCH   4   6
BRANCH   1  14
ATOM     14  C   LIG    1       -3.285  -4.662  -0.010  0.00  0.00    +0.213 C 
ATOM     15  C   LIG    1       -2.905  -5.469   1.234  0.00  0.00    +0.044 C 
BRANCH  14  16
ATOM     16  C   LIG    1       -2.541  -3.352  -0.005  0.00  0.00    +0.244 C 
ATOM     17  O   LIG    1       -3.155  -2.306   0.003  0.00  0.00    -0.273 OA
ATOM     18  N   LIG    1       -1.194  -3.342  -0.011  0.00  0.00    -0.266 N 
ATOM     19  H   LIG    1       -0.703  -4.179  -0.018  0.00  0.00    +0.156 HD
BRANCH  18  20
ATOM     20  C   LIG    1       -0.505  -2.129  -0.007  0.00  0.00    +0.168 A 
ATOM     21  C   LIG    1       -1.071  -0.827   0.002  0.00  0.00    +0.091 A 
ATOM     22  C   LIG    1        0.002  -0.004   0.002  0.00  0.00    +0.136 A 
ATOM     23  C   LIG    1       -0.018   1.503   0.010  0.00  0.00    +0.089 C 
ATOM     24  O   LIG    1        1.088  -0.791  -0.013  0.00  0.00    -0.358 OA
ATOM     25  N   LIG    1        0.792  -1.963  -0.012  0.00  0.00    -0.063 NA
ENDBRANCH  18  20
ENDBRANCH  14  16
ENDBRANCH   1  14
TORSDOF 4
