REMARK  Name = ZINC000194250589
REMARK                            x       y       z     vdW  Elec       q    Type
REMARK                         _______ _______ _______ _____ _____    ______ ____
ROOT
ATOM      1  N   LIG    1        2.148  -0.104   1.172  0.00  0.00    -0.310 N 
ATOM      2  C   LIG    1        2.997  -0.441   2.162  0.00  0.00    +0.251 C 
ATOM      3  O   LIG    1        2.596  -1.084   3.114  0.00  0.00    -0.270 OA
ATOM      4  H   LIG    1        2.467   0.409   0.412  0.00  0.00    +0.149 HD
ENDROOT
BRANCH   2   5
ATOM      5  C   LIG    1        4.407  -0.033   2.092  0.00  0.00    +0.075 A 
ATOM      6  C   LIG    1        5.329  -0.321   3.017  0.00  0.00    +0.029 A 
ATOM      7  C   LIG    1        6.621   0.165   2.757  0.00  0.00    -0.008 A 
ATOM      8  C   LIG    1        7.795   0.027   3.535  0.00  0.00    +0.041 A 
ATOM      9  C   LIG    1        8.968   0.573   3.118  0.00  0.00    +0.127 A 
ATOM     10  C   LIG    1        9.037   1.275   1.920  0.00  0.00    +0.034 A 
ATOM     11  C   LIG    1        7.914   1.426   1.142  0.00  0.00    +0.018 A 
ATOM     12  C   LIG    1        6.696   0.874   1.551  0.00  0.00    +0.020 A 
ATOM     13  S   LIG    1        5.114   0.893   0.779  0.00  0.00    -0.084 S 
BRANCH   9  14
ATOM     14  N   LIG    1       10.184   0.418   3.946  0.00  0.00    +0.056 N 
ATOM     15  O   LIG    1       10.131  -0.197   4.997  0.00  0.00    -0.126 OA
ATOM     16  O   LIG    1       11.238   0.904   3.578  0.00  0.00    -0.126 OA
ENDBRANCH   9  14
ENDBRANCH   2   5
BRANCH   1  17
ATOM     17  C   LIG    1        0.742  -0.511   1.242  0.00  0.00    +0.115 C 
BRANCH  17  18
ATOM     18  C   LIG    1        0.002  -0.004   0.002  0.00  0.00    +0.071 C 
ATOM     19  C   LIG    1       -0.019   1.526   0.010  0.00  0.00    +0.017 C 
BRANCH  18  20
ATOM     20  C   LIG    1       -1.412  -0.526   0.013  0.00  0.00    +0.137 A 
ATOM     21  N   LIG    1       -2.312  -0.300   0.930  0.00  0.00    -0.134 NA
ATOM     22  N   LIG    1       -3.407  -0.899   0.618  0.00  0.00    -0.138 NA
ATOM     23  C   LIG    1       -3.254  -1.534  -0.512  0.00  0.00    +0.224 A 
ATOM     24  N   LIG    1       -1.985  -1.310  -0.931  0.00  0.00    -0.320 N 
ATOM     25  C   LIG    1       -1.358  -1.821  -2.153  0.00  0.00    +0.151 C 
ENDBRANCH  18  20
ENDBRANCH  17  18
ENDBRANCH   1  17
TORSDOF 5
