REMARK  Name = ZINC000074551856
REMARK                            x       y       z     vdW  Elec       q    Type
REMARK                         _______ _______ _______ _____ _____    ______ ____
ROOT
ATOM      1  N   LIG    1       -0.671  -1.276  -3.674  0.00  0.00    -0.291 N 
ATOM      2  H   LIG    1       -0.647  -2.244  -3.607  0.00  0.00    +0.151 HD
ATOM      3  C   LIG    1       -0.483  -0.679  -4.867  0.00  0.00    +0.301 C 
ATOM      4  O   LIG    1       -0.512   0.534  -4.951  0.00  0.00    -0.253 OA
ATOM      5  N   LIG    1       -0.261  -1.425  -5.967  0.00  0.00    -0.290 N 
ATOM      6  H   LIG    1       -0.237  -2.393  -5.900  0.00  0.00    +0.151 HD
ENDROOT
BRANCH   5   7
ATOM      7  C   LIG    1       -0.056  -0.776  -7.264  0.00  0.00    +0.064 C 
ATOM      8  C   LIG    1        1.340  -0.860  -7.884  0.00  0.00    +0.033 C 
ATOM      9  C   LIG    1        0.191  -1.678  -8.475  0.00  0.00    +0.033 C 
BRANCH   7  10
ATOM     10  C   LIG    1       -0.843   0.490  -7.488  0.00  0.00    +0.011 A 
ATOM     11  C   LIG    1       -0.254   1.719  -7.258  0.00  0.00    +0.008 A 
ATOM     12  C   LIG    1       -0.975   2.881  -7.464  0.00  0.00    +0.001 A 
ATOM     13  C   LIG    1       -2.285   2.814  -7.899  0.00  0.00    +0.003 A 
ATOM     14  C   LIG    1       -2.876   1.586  -8.130  0.00  0.00    +0.039 A 
ATOM     15  C   LIG    1       -2.153   0.423  -7.930  0.00  0.00    +0.129 A 
ATOM     16  F   LIG    1       -2.729  -0.778  -8.155  0.00  0.00    -0.205 F 
ENDBRANCH   7  10
ENDBRANCH   5   7
BRANCH   1  17
ATOM     17  C   LIG    1       -0.912  -0.465  -2.478  0.00  0.00    +0.201 C 
BRANCH  17  18
ATOM     18  C   LIG    1       -1.089  -1.369  -1.285  0.00  0.00    +0.233 C 
ATOM     19  N   LIG    1       -1.323  -0.839  -0.068  0.00  0.00    -0.295 N 
ATOM     20  C   LIG    1       -1.405   0.614   0.096  0.00  0.00    +0.132 C 
ATOM     21  O   LIG    1       -1.021  -2.572  -1.420  0.00  0.00    -0.274 OA
BRANCH  19  22
ATOM     22  C   LIG    1       -1.495  -1.718   1.092  0.00  0.00    +0.220 C 
BRANCH  22  23
ATOM     23  C   LIG    1       -2.975  -2.076   1.245  0.00  0.00    +0.405 C 
ATOM     24  F   LIG    1       -3.139  -2.915   2.353  0.00  0.00    -0.169 F 
ATOM     25  F   LIG    1       -3.721  -0.907   1.431  0.00  0.00    -0.169 F 
ATOM     26  F   LIG    1       -3.417  -2.733   0.092  0.00  0.00    -0.169 F 
ENDBRANCH  22  23
ENDBRANCH  19  22
ENDBRANCH  17  18
ENDBRANCH   1  17
TORSDOF 6
