REMARK  Name = ZINC000058193097
REMARK                            x       y       z     vdW  Elec       q    Type
REMARK                         _______ _______ _______ _____ _____    ______ ____
ROOT
ATOM      1  O   LIG    1       -0.070  -2.830  -0.007  0.00  0.00    -0.482 OA
ENDROOT
BRANCH   1   2
ATOM      2  C   LIG    1       -1.250  -2.161   0.002  0.00  0.00    +0.135 A 
ATOM      3  C   LIG    1       -2.447  -2.860   0.016  0.00  0.00    +0.066 A 
ATOM      4  C   LIG    1       -3.649  -2.177   0.026  0.00  0.00    +0.044 A 
ATOM      5 CL   LIG    1       -5.143  -3.060   0.036  0.00  0.00    -0.083 Cl
ATOM      6  C   LIG    1       -3.667  -0.791   0.027  0.00  0.00    +0.021 A 
ATOM      7  C   LIG    1       -2.486  -0.081   0.020  0.00  0.00    +0.018 A 
ATOM      8  C   LIG    1       -1.265  -0.759   0.010  0.00  0.00    +0.078 A 
BRANCH   8   9
ATOM      9  C   LIG    1        0.002  -0.004   0.002  0.00  0.00    +0.245 C 
ATOM     10  N   LIG    1       -0.016   1.344   0.009  0.00  0.00    -0.325 N 
ATOM     11  H   LIG    1       -0.863   1.817   0.016  0.00  0.00    +0.145 HD
ATOM     12  H   LIG    1        0.817   1.840   0.004  0.00  0.00    +0.145 HD
ATOM     13  O   LIG    1        1.063  -0.598  -0.011  0.00  0.00    -0.270 OA
ENDBRANCH   8   9
ENDBRANCH   1   2
BRANCH   1  14
ATOM     14  C   LIG    1       -0.133  -4.257  -0.003  0.00  0.00    +0.325 C 
BRANCH  14  15
ATOM     15  C   LIG    1        1.264  -4.822  -0.015  0.00  0.00    +0.257 C 
ATOM     16  N   LIG    1        1.451  -6.157  -0.013  0.00  0.00    -0.268 N 
ATOM     17  C   LIG    1        0.428  -7.110   0.000  0.00  0.00    +0.040 A 
ATOM     18  C   LIG    1       -0.956  -6.923   0.001  0.00  0.00    +0.024 A 
ATOM     19  C   LIG    1       -1.804  -8.010   0.007  0.00  0.00    +0.002 A 
ATOM     20  C   LIG    1       -1.290  -9.293   0.008  0.00  0.00    +0.000 A 
ATOM     21  C   LIG    1        0.079  -9.487   0.002  0.00  0.00    +0.005 A 
ATOM     22  C   LIG    1        0.932  -8.401  -0.005  0.00  0.00    -0.024 A 
ATOM     23  C   LIG    1        2.443  -8.327  -0.013  0.00  0.00    +0.056 A 
ATOM     24  C   LIG    1        2.757  -6.822  -0.018  0.00  0.00    +0.118 A 
ATOM     25  O   LIG    1        2.220  -4.075  -0.026  0.00  0.00    -0.272 OA
ENDBRANCH  14  15
ENDBRANCH   1  14
TORSDOF 4
