REMARK  Name = ZINC000058193695
REMARK                            x       y       z     vdW  Elec       q    Type
REMARK                         _______ _______ _______ _____ _____    ______ ____
ROOT
ATOM      1  O   LIG    1        0.002  -0.004   0.002  0.00  0.00    -0.275 OA
ATOM      2  C   LIG    1       -0.014   1.209   0.009  0.00  0.00    +0.218 C 
ATOM      3  N   LIG    1        1.143   1.898   0.001  0.00  0.00    -0.315 N 
ATOM      4  H   LIG    1        1.130   2.868   0.007  0.00  0.00    +0.149 HD
ENDROOT
BRANCH   2   5
ATOM      5  C   LIG    1       -1.330   1.944   0.019  0.00  0.00    +0.101 C 
ATOM      6  C   LIG    1       -2.516   0.958  -0.059  0.00  0.00    +0.121 C 
ATOM      7  N   LIG    1       -3.526   1.625  -0.888  0.00  0.00    -0.293 N 
ATOM      8  C   LIG    1       -2.991   2.640  -1.588  0.00  0.00    +0.217 C 
ATOM      9  O   LIG    1       -3.602   3.353  -2.356  0.00  0.00    -0.276 OA
ATOM     10  C   LIG    1       -1.515   2.764  -1.279  0.00  0.00    +0.110 C 
BRANCH   7  11
ATOM     11  C   LIG    1       -4.937   1.236  -0.945  0.00  0.00    +0.182 C 
BRANCH  11  12
ATOM     12  C   LIG    1       -5.132   0.213  -2.035  0.00  0.00    +0.122 A 
ATOM     13  C   LIG    1       -5.047  -1.121  -1.885  0.00  0.00    +0.046 A 
ATOM     14  C   LIG    1       -5.299  -1.692  -3.154  0.00  0.00    +0.041 A 
ATOM     15  C   LIG    1       -5.522  -0.673  -4.003  0.00  0.00    +0.195 A 
ATOM     16  O   LIG    1       -5.426   0.478  -3.318  0.00  0.00    -0.466 OA
ENDBRANCH  11  12
ENDBRANCH   7  11
ENDBRANCH   2   5
BRANCH   3  17
ATOM     17  C   LIG    1        2.422   1.183  -0.015  0.00  0.00    +0.109 C 
BRANCH  17  18
ATOM     18  C   LIG    1        3.571   2.193  -0.020  0.00  0.00    +0.054 C 
BRANCH  18  19
ATOM     19  C   LIG    1        4.886   1.458  -0.037  0.00  0.00    -0.040 A 
ATOM     20  C   LIG    1        5.498   1.109   1.153  0.00  0.00    +0.042 A 
ATOM     21  C   LIG    1        6.706   0.433   1.139  0.00  0.00    +0.126 A 
ATOM     22  F   LIG    1        7.303   0.092   2.302  0.00  0.00    -0.205 F 
ATOM     23  C   LIG    1        7.302   0.106  -0.067  0.00  0.00    +0.076 A 
ATOM     24  C   LIG    1        6.688   0.455  -1.258  0.00  0.00    +0.126 A 
ATOM     25  F   LIG    1        7.269   0.137  -2.436  0.00  0.00    -0.205 F 
ATOM     26  C   LIG    1        5.478   1.127  -1.242  0.00  0.00    +0.042 A 
ENDBRANCH  18  19
ENDBRANCH  17  18
ENDBRANCH   3  17
TORSDOF 6
