REMARK  Name = ZINC000001075810
REMARK                            x       y       z     vdW  Elec       q    Type
REMARK                         _______ _______ _______ _____ _____    ______ ____
ROOT
ATOM      1  N   LIG    1        1.385  -4.028   2.210  0.00  0.00    -0.281 N 
ATOM      2  H   LIG    1        1.898  -4.463   2.908  0.00  0.00    +0.155 HD
ATOM      3  C   LIG    1        0.740  -4.768   1.286  0.00  0.00    +0.234 C 
ATOM      4  O   LIG    1        0.183  -4.225   0.355  0.00  0.00    -0.274 OA
ENDROOT
BRANCH   1   5
ATOM      5  C   LIG    1        1.314  -2.629   2.161  0.00  0.00    +0.079 A 
ATOM      6  C   LIG    1        2.323  -1.859   2.735  0.00  0.00    +0.141 A 
ATOM      7  C   LIG    1        2.249  -0.477   2.686  0.00  0.00    +0.051 A 
ATOM      8  C   LIG    1        1.177   0.139   2.068  0.00  0.00    +0.049 A 
ATOM      9  C   LIG    1        0.171  -0.625   1.496  0.00  0.00    +0.122 A 
ATOM     10  C   LIG    1        0.236  -2.009   1.547  0.00  0.00    +0.072 A 
BRANCH   6  11
ATOM     11  O   LIG    1        3.379  -2.464   3.343  0.00  0.00    -0.493 OA
ATOM     12  C   LIG    1        4.376  -1.612   3.910  0.00  0.00    +0.277 C 
ENDBRANCH   6  11
BRANCH   9  13
ATOM     13  O   LIG    1       -0.883  -0.017   0.890  0.00  0.00    -0.495 OA
ATOM     14  C   LIG    1       -0.886   1.412   0.874  0.00  0.00    +0.277 C 
ENDBRANCH   9  13
ENDBRANCH   1   5
BRANCH   3  15
ATOM     15  C   LIG    1        0.713  -6.269   1.408  0.00  0.00    +0.200 C 
BRANCH  15  16
ATOM     16  N   LIG    1       -0.044  -6.837   0.290  0.00  0.00    -0.303 N 
ATOM     17  C   LIG    1       -0.202  -8.172   0.191  0.00  0.00    +0.247 C 
ATOM     18  O   LIG    1        0.284  -8.905   1.030  0.00  0.00    -0.270 OA
ATOM     19  H   LIG    1       -0.432  -6.252  -0.380  0.00  0.00    +0.150 HD
BRANCH  17  20
ATOM     20  C   LIG    1       -0.965  -8.744  -0.936  0.00  0.00    +0.072 A 
ATOM     21  C   LIG    1       -1.130 -10.129  -1.042  0.00  0.00    +0.135 A 
ATOM     22  F   LIG    1       -0.597 -10.948  -0.110  0.00  0.00    -0.205 F 
ATOM     23  C   LIG    1       -1.852 -10.655  -2.098  0.00  0.00    +0.039 A 
ATOM     24  C   LIG    1       -2.397  -9.817  -3.052  0.00  0.00    +0.003 A 
ATOM     25  C   LIG    1       -2.231  -8.446  -2.956  0.00  0.00    +0.001 A 
ATOM     26  C   LIG    1       -1.519  -7.906  -1.905  0.00  0.00    +0.016 A 
ENDBRANCH  17  20
ENDBRANCH  15  16
ENDBRANCH   3  15
TORSDOF 6
