REMARK  Name = ZINC000095991633
REMARK                            x       y       z     vdW  Elec       q    Type
REMARK                         _______ _______ _______ _____ _____    ______ ____
ROOT
ATOM      1  C   LIG    1        2.424   1.177  -0.017  0.00  0.00    +0.161 C 
ATOM      2  C   LIG    1        2.880   0.868   1.392  0.00  0.00    +0.240 C 
ATOM      3  O   LIG    1        2.175   0.415   2.269  0.00  0.00    -0.273 OA
ATOM      4  N   LIG    1        4.184   1.174   1.531  0.00  0.00    -0.270 N 
ATOM      5  C   LIG    1        4.747   1.692   0.279  0.00  0.00    +0.116 C 
ATOM      6  C   LIG    1        3.532   2.094  -0.585  0.00  0.00    +0.051 C 
ENDROOT
BRANCH   4   7
ATOM      7  C   LIG    1        4.909   1.016   2.719  0.00  0.00    +0.038 A 
ATOM      8  C   LIG    1        4.261   0.625   3.882  0.00  0.00    +0.026 A 
ATOM      9  C   LIG    1        4.978   0.469   5.053  0.00  0.00    +0.041 A 
ATOM     10  C   LIG    1        6.342   0.702   5.066  0.00  0.00    +0.142 A 
ATOM     11  F   LIG    1        7.041   0.549   6.212  0.00  0.00    -0.204 F 
ATOM     12  C   LIG    1        6.992   1.092   3.906  0.00  0.00    +0.078 A 
ATOM     13 CL   LIG    1        8.703   1.383   3.926  0.00  0.00    -0.081 Cl
ATOM     14  C   LIG    1        6.279   1.244   2.732  0.00  0.00    +0.046 A 
ENDBRANCH   4   7
BRANCH   1  15
ATOM     15  N   LIG    1        1.138   1.877   0.002  0.00  0.00    -0.300 N 
ATOM     16  H   LIG    1        1.114   2.847   0.014  0.00  0.00    +0.150 HD
ATOM     17  C   LIG    1       -0.012   1.175   0.003  0.00  0.00    +0.246 C 
ATOM     18  O   LIG    1        0.018  -0.041  -0.013  0.00  0.00    -0.270 OA
BRANCH  17  19
ATOM     19  C   LIG    1       -1.311   1.881   0.015  0.00  0.00    +0.055 A 
ATOM     20  C   LIG    1       -1.359   3.276   0.033  0.00  0.00    +0.123 A 
ATOM     21  N   LIG    1       -2.515   3.906   0.038  0.00  0.00    -0.263 NA
ATOM     22  C   LIG    1       -3.663   3.255   0.040  0.00  0.00    +0.111 A 
ATOM     23  C   LIG    1       -3.700   1.873   0.029  0.00  0.00    +0.020 A 
ATOM     24  C   LIG    1       -2.512   1.163   0.017  0.00  0.00    +0.016 A 
ENDBRANCH  17  19
ENDBRANCH   1  15
TORSDOF 3
