REMARK  Name = ZINC000025816825
REMARK                            x       y       z     vdW  Elec       q    Type
REMARK                         _______ _______ _______ _____ _____    ______ ____
ROOT
ATOM      1  C   LIG    1       -3.043  -4.173  -0.166  0.00  0.00    +0.091 C 
ATOM      2  C   LIG    1       -3.519  -4.472   1.271  0.00  0.00    +0.025 C 
ATOM      3  C   LIG    1       -2.698  -5.732   1.656  0.00  0.00    +0.017 C 
ATOM      4  C   LIG    1       -1.349  -5.455   0.946  0.00  0.00    +0.085 C 
ATOM      5  N   LIG    1       -1.721  -4.804  -0.332  0.00  0.00    -0.287 NA
ENDROOT
BRANCH   1   6
ATOM      6  C   LIG    1       -2.929  -2.684  -0.368  0.00  0.00    +0.015 A 
ATOM      7  C   LIG    1       -2.668  -1.859   0.708  0.00  0.00    +0.054 A 
ATOM      8  C   LIG    1       -2.568  -0.487   0.522  0.00  0.00    +0.121 A 
ATOM      9  C   LIG    1       -2.720   0.053  -0.746  0.00  0.00    +0.049 A 
ATOM     10  C   LIG    1       -2.975  -0.773  -1.823  0.00  0.00    +0.049 A 
ATOM     11  C   LIG    1       -3.081  -2.143  -1.637  0.00  0.00    +0.125 A 
BRANCH   8  12
ATOM     12  O   LIG    1       -2.316   0.326   1.582  0.00  0.00    -0.495 OA
ATOM     13  C   LIG    1       -2.340   1.734   1.340  0.00  0.00    +0.277 C 
ENDBRANCH   8  12
BRANCH  11  14
ATOM     14  O   LIG    1       -3.333  -2.956  -2.697  0.00  0.00    -0.495 OA
ATOM     15  C   LIG    1       -3.477  -2.331  -3.974  0.00  0.00    +0.277 C 
ENDBRANCH  11  14
ENDBRANCH   1   6
BRANCH   5  16
ATOM     16  C   LIG    1       -0.711  -3.814  -0.731  0.00  0.00    +0.181 C 
BRANCH  16  17
ATOM     17  C   LIG    1        0.588  -4.516  -1.035  0.00  0.00    +0.230 C 
ATOM     18  O   LIG    1        0.639  -5.727  -1.025  0.00  0.00    -0.274 OA
ATOM     19  N   LIG    1        1.692  -3.796  -1.317  0.00  0.00    -0.296 N 
ATOM     20  C   LIG    1        1.686  -2.328  -1.216  0.00  0.00    +0.136 C 
ATOM     21  C   LIG    1        2.248  -1.751  -2.520  0.00  0.00    +0.179 C 
ATOM     22  O   LIG    1        3.510  -2.363  -2.800  0.00  0.00    -0.374 OA
ATOM     23  C   LIG    1        3.440  -3.775  -3.015  0.00  0.00    +0.132 C 
ATOM     24  C   LIG    1        4.830  -4.308  -3.367  0.00  0.00    +0.039 C 
ATOM     25  C   LIG    1        2.941  -4.456  -1.731  0.00  0.00    +0.139 C 
ENDBRANCH  16  17
ENDBRANCH   5  16
TORSDOF 5
