REMARK  Name = ZINC000058191629
REMARK                            x       y       z     vdW  Elec       q    Type
REMARK                         _______ _______ _______ _____ _____    ______ ____
ROOT
ATOM      1  N   LIG    1        3.607   2.831   1.235  0.00  0.00    -0.308 N 
ATOM      2  H   LIG    1        2.925   2.681   1.909  0.00  0.00    +0.149 HD
ATOM      3  C   LIG    1        4.584   3.732   1.453  0.00  0.00    +0.246 C 
ATOM      4  O   LIG    1        5.438   3.920   0.609  0.00  0.00    -0.270 OA
ENDROOT
BRANCH   3   5
ATOM      5  C   LIG    1        4.618   4.493   2.720  0.00  0.00    +0.055 A 
ATOM      6  C   LIG    1        3.642   4.276   3.694  0.00  0.00    +0.017 A 
ATOM      7  C   LIG    1        3.679   4.989   4.874  0.00  0.00    +0.033 A 
ATOM      8  C   LIG    1        4.680   5.919   5.094  0.00  0.00    +0.128 A 
ATOM      9  C   LIG    1        5.651   6.140   4.134  0.00  0.00    +0.053 A 
ATOM     10  C   LIG    1        5.630   5.429   2.950  0.00  0.00    +0.055 A 
ATOM     11 CL   LIG    1        6.848   5.707   1.746  0.00  0.00    -0.083 Cl
BRANCH   8  12
ATOM     12  N   LIG    1        4.713   6.680   6.363  0.00  0.00    +0.056 N 
ATOM     13  O   LIG    1        3.860   6.488   7.211  0.00  0.00    -0.126 OA
ATOM     14  O   LIG    1        5.593   7.499   6.560  0.00  0.00    -0.126 OA
ENDBRANCH   8  12
ENDBRANCH   3   5
BRANCH   1  15
ATOM     15  C   LIG    1        3.573   2.077  -0.021  0.00  0.00    +0.145 C 
BRANCH  15  16
ATOM     16  C   LIG    1        2.373   1.128  -0.015  0.00  0.00    +0.251 C 
BRANCH  16  17
ATOM     17  O   LIG    1        1.145   1.902   0.001  0.00  0.00    -0.457 OA
BRANCH  17  18
ATOM     18  C   LIG    1       -0.014   1.212   0.009  0.00  0.00    +0.375 C 
ATOM     19  O   LIG    1        0.002  -0.004   0.002  0.00  0.00    -0.241 OA
BRANCH  18  20
ATOM     20  C   LIG    1       -1.293   1.927   0.019  0.00  0.00    +0.211 A 
ATOM     21  C   LIG    1       -2.533   1.354   0.027  0.00  0.00    +0.056 A 
ATOM     22  C   LIG    1       -3.463   2.405   0.035  0.00  0.00    +0.042 A 
ATOM     23  C   LIG    1       -2.759   3.559   0.031  0.00  0.00    +0.196 A 
ATOM     24  O   LIG    1       -1.452   3.267   0.027  0.00  0.00    -0.456 OA
ENDBRANCH  18  20
ENDBRANCH  17  18
ENDBRANCH  16  17
ENDBRANCH  15  16
ENDBRANCH   1  15
TORSDOF 7
