REMARK  Name = ZINC000005579290
REMARK                            x       y       z     vdW  Elec       q    Type
REMARK                         _______ _______ _______ _____ _____    ______ ____
ROOT
ATOM      1  S   LIG    1       -5.067  -4.344  -0.001  0.00  0.00    -0.077 S 
ENDROOT
BRANCH   1   2
ATOM      2  C   LIG    1       -5.673  -5.999  -0.007  0.00  0.00    +0.192 A 
ATOM      3  N   LIG    1       -6.983  -6.383  -0.004  0.00  0.00    -0.309 N 
ATOM      4  C   LIG    1       -8.161  -5.512   0.001  0.00  0.00    +0.152 C 
ATOM      5  C   LIG    1       -6.968  -7.751  -0.015  0.00  0.00    +0.139 A 
ATOM      6  N   LIG    1       -5.720  -8.125  -0.015  0.00  0.00    -0.133 NA
ATOM      7  N   LIG    1       -4.951  -7.095  -0.011  0.00  0.00    -0.122 NA
BRANCH   5   8
ATOM      8  C   LIG    1       -8.171  -8.658  -0.019  0.00  0.00    +0.118 C 
BRANCH   8   9
ATOM      9  C   LIG    1       -8.574  -8.966   1.400  0.00  0.00    -0.003 A 
ATOM     10  S   LIG    1       -7.980 -10.321   2.351  0.00  0.00    -0.101 S 
ATOM     11  C   LIG    1       -8.962  -9.827   3.724  0.00  0.00    +0.045 A 
ATOM     12  C   LIG    1       -9.653  -8.731   3.408  0.00  0.00    +0.008 A 
ATOM     13  C   LIG    1       -9.439  -8.255   2.126  0.00  0.00    +0.011 A 
ENDBRANCH   8   9
ENDBRANCH   5   8
ENDBRANCH   1   2
BRANCH   1  14
ATOM     14  C   LIG    1       -3.285  -4.662  -0.010  0.00  0.00    +0.173 C 
BRANCH  14  15
ATOM     15  C   LIG    1       -2.541  -3.352  -0.005  0.00  0.00    +0.229 C 
ATOM     16  O   LIG    1       -3.155  -2.306   0.003  0.00  0.00    -0.275 OA
ATOM     17  N   LIG    1       -1.194  -3.342  -0.011  0.00  0.00    -0.267 N 
ATOM     18  H   LIG    1       -0.703  -4.179  -0.018  0.00  0.00    +0.156 HD
BRANCH  17  19
ATOM     19  C   LIG    1       -0.505  -2.129  -0.007  0.00  0.00    +0.168 A 
ATOM     20  C   LIG    1       -1.071  -0.827   0.002  0.00  0.00    +0.091 A 
ATOM     21  C   LIG    1        0.002  -0.004   0.002  0.00  0.00    +0.136 A 
ATOM     22  C   LIG    1       -0.018   1.503   0.010  0.00  0.00    +0.089 C 
ATOM     23  O   LIG    1        1.088  -0.791  -0.013  0.00  0.00    -0.358 OA
ATOM     24  N   LIG    1        0.792  -1.963  -0.012  0.00  0.00    -0.063 NA
ENDBRANCH  17  19
ENDBRANCH  14  15
ENDBRANCH   1  14
TORSDOF 6
