REMARK  Name = ZINC000095987619
REMARK                            x       y       z     vdW  Elec       q    Type
REMARK                         _______ _______ _______ _____ _____    ______ ____
ROOT
ATOM      1  C   LIG    1        0.463   1.069   5.881  0.00  0.00    +0.110 C 
ATOM      2  C   LIG    1        1.601   1.029   6.930  0.00  0.00    +0.053 C 
ATOM      3  C   LIG    1        1.046   1.950   8.047  0.00  0.00    +0.162 C 
ATOM      4  O   LIG    1       -0.367   1.654   8.056  0.00  0.00    -0.370 OA
ATOM      5  C   LIG    1       -0.776   1.516   6.682  0.00  0.00    +0.169 C 
ENDROOT
BRANCH   5   6
ATOM      6  C   LIG    1       -1.862   0.476   6.573  0.00  0.00    -0.014 A 
ATOM      7  C   LIG    1       -1.863  -0.613   7.424  0.00  0.00    +0.009 A 
ATOM      8  C   LIG    1       -2.857  -1.568   7.326  0.00  0.00    +0.041 A 
ATOM      9  C   LIG    1       -3.854  -1.434   6.376  0.00  0.00    +0.158 A 
ATOM     10  F   LIG    1       -4.827  -2.367   6.280  0.00  0.00    -0.202 F 
ATOM     11  C   LIG    1       -3.854  -0.341   5.522  0.00  0.00    +0.159 A 
ATOM     12  F   LIG    1       -4.826  -0.208   4.594  0.00  0.00    -0.202 F 
ATOM     13  C   LIG    1       -2.860   0.616   5.626  0.00  0.00    +0.047 A 
ENDBRANCH   5   6
BRANCH   1  14
ATOM     14  N   LIG    1        0.249  -0.261   5.305  0.00  0.00    -0.294 N 
ATOM     15  H   LIG    1       -0.401  -0.862   5.701  0.00  0.00    +0.151 HD
ATOM     16  C   LIG    1        0.955  -0.648   4.225  0.00  0.00    +0.302 C 
ATOM     17  O   LIG    1        1.770   0.106   3.728  0.00  0.00    -0.253 OA
ATOM     18  N   LIG    1        0.759  -1.872   3.695  0.00  0.00    -0.287 N 
ATOM     19  C   LIG    1       -0.222  -2.780   4.293  0.00  0.00    +0.133 C 
BRANCH  18  20
ATOM     20  C   LIG    1        1.526  -2.293   2.520  0.00  0.00    +0.137 C 
BRANCH  20  21
ATOM     21  C   LIG    1        0.770  -1.902   1.249  0.00  0.00    +0.178 C 
BRANCH  21  22
ATOM     22  O   LIG    1        0.693  -0.477   1.160  0.00  0.00    -0.378 OA
BRANCH  22  23
ATOM     23  C   LIG    1        0.002  -0.004   0.002  0.00  0.00    +0.156 C 
ATOM     24  C   LIG    1       -0.019   1.526   0.010  0.00  0.00    +0.034 C 
ENDBRANCH  22  23
ENDBRANCH  21  22
ENDBRANCH  20  21
ENDBRANCH  18  20
ENDBRANCH   1  14
TORSDOF 6
