REMARK  Name = ZINC000012983135
REMARK                            x       y       z     vdW  Elec       q    Type
REMARK                         _______ _______ _______ _____ _____    ______ ____
ROOT
ATOM      1  C   LIG    1        3.075   0.345   4.686  0.00  0.00    +0.200 C 
ENDROOT
BRANCH   1   2
ATOM      2  C   LIG    1        3.077   0.810   6.119  0.00  0.00    +0.234 C 
ATOM      3  N   LIG    1        4.245   1.029   6.755  0.00  0.00    -0.284 N 
ATOM      4  H   LIG    1        5.084   0.826   6.312  0.00  0.00    +0.155 HD
ATOM      5  O   LIG    1        2.028   0.987   6.701  0.00  0.00    -0.274 OA
BRANCH   3   6
ATOM      6  C   LIG    1        4.248   1.550   8.054  0.00  0.00    +0.038 A 
ATOM      7  C   LIG    1        3.243   1.201   8.945  0.00  0.00    +0.023 A 
ATOM      8  C   LIG    1        3.248   1.716  10.227  0.00  0.00    +0.003 A 
ATOM      9  C   LIG    1        4.252   2.579  10.623  0.00  0.00    +0.020 A 
ATOM     10  C   LIG    1        5.256   2.930   9.737  0.00  0.00    +0.046 A 
ATOM     11 CL   LIG    1        6.516   4.014  10.238  0.00  0.00    -0.083 Cl
ATOM     12  C   LIG    1        5.260   2.413   8.455  0.00  0.00    -0.011 A 
ATOM     13  C   LIG    1        6.352   2.795   7.490  0.00  0.00    +0.047 C 
ENDBRANCH   3   6
ENDBRANCH   1   2
BRANCH   1  14
ATOM     14  N   LIG    1        1.693   0.181   4.228  0.00  0.00    -0.305 N 
ATOM     15  H   LIG    1        0.957   0.368   4.831  0.00  0.00    +0.149 HD
ATOM     16  C   LIG    1        1.445  -0.230   2.968  0.00  0.00    +0.235 C 
ATOM     17  O   LIG    1        2.366  -0.464   2.214  0.00  0.00    -0.274 OA
BRANCH  16  18
ATOM     18  C   LIG    1        0.024  -0.398   2.497  0.00  0.00    +0.239 C 
BRANCH  18  19
ATOM     19  N   LIG    1        0.022  -0.850   1.103  0.00  0.00    -0.259 N 
ATOM     20  N   LIG    1        0.033  -2.182   0.669  0.00  0.00    -0.176 NA
ATOM     21  C   LIG    1        0.027  -2.185  -0.640  0.00  0.00    +0.060 A 
ATOM     22  C   LIG    1        0.006  -0.857  -1.079  0.00  0.00    +0.047 A 
ATOM     23  C   LIG    1        0.041  -3.407  -1.521  0.00  0.00    +0.067 C 
ATOM     24  C   LIG    1        0.000  -0.057   0.012  0.00  0.00    +0.037 A 
ATOM     25  C   LIG    1       -0.021   1.450   0.009  0.00  0.00    +0.065 C 
ENDBRANCH  18  19
ENDBRANCH  16  18
ENDBRANCH   1  14
TORSDOF 5
