REMARK  Name = ZINC000069600309
REMARK                            x       y       z     vdW  Elec       q    Type
REMARK                         _______ _______ _______ _____ _____    ______ ____
ROOT
ATOM      1  C   LIG    1       -0.150  -2.586  -1.378  0.00  0.00    +0.061 A 
ATOM      2  C   LIG    1       -0.049  -3.285  -0.172  0.00  0.00    +0.018 A 
ATOM      3  C   LIG    1        0.636  -4.480  -0.123  0.00  0.00    +0.048 A 
ATOM      4  C   LIG    1        1.226  -4.993  -1.270  0.00  0.00    +0.142 A 
ATOM      5  C   LIG    1        1.129  -4.301  -2.478  0.00  0.00    +0.078 A 
ATOM      6  C   LIG    1        0.439  -3.104  -2.535  0.00  0.00    +0.042 A 
ENDROOT
BRANCH   5   7
ATOM      7  N   LIG    1        1.726  -4.822  -3.635  0.00  0.00    -0.266 N 
ATOM      8  H   LIG    1        1.860  -5.778  -3.723  0.00  0.00    +0.156 HD
ATOM      9  C   LIG    1        2.113  -3.993  -4.625  0.00  0.00    +0.307 C 
ATOM     10  O   LIG    1        1.874  -2.803  -4.550  0.00  0.00    -0.252 OA
ATOM     11  N   LIG    1        2.765  -4.484  -5.698  0.00  0.00    -0.283 N 
ATOM     12  C   LIG    1        2.956  -5.931  -5.860  0.00  0.00    +0.109 C 
ATOM     13  C   LIG    1        4.447  -6.211  -6.072  0.00  0.00    +0.022 C 
ATOM     14  C   LIG    1        4.957  -5.374  -7.247  0.00  0.00    +0.034 C 
ATOM     15  C   LIG    1        4.785  -3.887  -6.929  0.00  0.00    +0.132 C 
ATOM     16  C   LIG    1        3.293  -3.581  -6.730  0.00  0.00    +0.140 C 
BRANCH  15  17
ATOM     17  O   LIG    1        5.291  -3.106  -8.014  0.00  0.00    -0.390 OA
ATOM     18  H   LIG    1        5.214  -2.151  -7.880  0.00  0.00    +0.210 HD
ENDBRANCH  15  17
ENDBRANCH   5   7
BRANCH   1  19
ATOM     19  C   LIG    1       -0.882  -1.307  -1.431  0.00  0.00    +0.339 C 
ATOM     20  O   LIG    1       -0.974  -0.703  -2.481  0.00  0.00    -0.245 OA
BRANCH  19  21
ATOM     21  O   LIG    1       -1.450  -0.808  -0.315  0.00  0.00    -0.464 OA
ATOM     22  C   LIG    1       -2.155   0.455  -0.442  0.00  0.00    +0.280 C 
ENDBRANCH  19  21
ENDBRANCH   1  19
BRANCH   4  23
ATOM     23  O   LIG    1        1.900  -6.171  -1.216  0.00  0.00    -0.488 OA
BRANCH  23  24
ATOM     24  C   LIG    1        1.975  -6.818   0.056  0.00  0.00    +0.167 C 
ATOM     25  C   LIG    1        0.707  -7.644   0.283  0.00  0.00    +0.051 C 
ATOM     26  C   LIG    1        3.196  -7.738   0.088  0.00  0.00    +0.051 C 
ENDBRANCH  23  24
ENDBRANCH   4  23
TORSDOF 6
