REMARK  Name = ZINC000222105683
REMARK                            x       y       z     vdW  Elec       q    Type
REMARK                         _______ _______ _______ _____ _____    ______ ____
ROOT
ATOM      1  C   LIG    1       -1.694  -3.481   2.654  0.00  0.00    +0.221 C 
ATOM      2  C   LIG    1       -2.420  -2.159   2.913  0.00  0.00    +0.042 C 
ENDROOT
BRANCH   1   3
ATOM      3  C   LIG    1       -1.812  -4.364   3.869  0.00  0.00    +0.240 C 
ATOM      4  O   LIG    1       -0.886  -4.450   4.649  0.00  0.00    -0.274 OA
ATOM      5  N   LIG    1       -2.945  -5.060   4.090  0.00  0.00    -0.299 N 
ATOM      6  C   LIG    1       -3.115  -5.843   5.322  0.00  0.00    +0.111 C 
ATOM      7  C   LIG    1       -3.485  -7.278   4.953  0.00  0.00    +0.004 C 
ATOM      8  C   LIG    1       -2.311  -7.933   4.223  0.00  0.00    +0.009 C 
ATOM      9  C   LIG    1       -4.713  -7.267   4.040  0.00  0.00    +0.009 C 
ATOM     10  C   LIG    1       -4.388  -6.505   2.753  0.00  0.00    +0.004 C 
ATOM     11  C   LIG    1       -5.605  -6.523   1.827  0.00  0.00    +0.009 C 
ATOM     12  C   LIG    1       -4.030  -5.056   3.100  0.00  0.00    +0.111 C 
ENDBRANCH   1   3
BRANCH   1  13
ATOM     13  S   LIG    1        0.057  -3.153   2.312  0.00  0.00    +0.031 S 
ATOM     14  O   LIG    1        0.648  -2.432   3.384  0.00  0.00    -0.167 OA
ATOM     15  O   LIG    1        0.684  -4.308   1.771  0.00  0.00    -0.167 OA
BRANCH  13  16
ATOM     16  C   LIG    1        0.035  -2.004   0.976  0.00  0.00    +0.216 A 
ATOM     17  N   LIG    1        0.016  -0.721   1.105  0.00  0.00    -0.227 NA
ATOM     18  C   LIG    1       -0.002  -0.005  -0.001  0.00  0.00    +0.047 A 
ATOM     19  C   LIG    1       -0.031   1.501   0.003  0.00  0.00    +0.066 C 
ATOM     20  C   LIG    1        0.013  -0.725  -1.127  0.00  0.00    +0.071 A 
ATOM     21  S   LIG    1        0.045  -2.429  -0.680  0.00  0.00    -0.057 S 
ENDBRANCH  13  16
ENDBRANCH   1  13
TORSDOF 3
