REMARK  Name = ZINC000069616061
REMARK                            x       y       z     vdW  Elec       q    Type
REMARK                         _______ _______ _______ _____ _____    ______ ____
ROOT
ATOM      1  C   LIG    1        0.731  -0.503   1.223  0.00  0.00    +0.244 C 
ATOM      2  N   LIG    1        0.223  -0.277   2.451  0.00  0.00    -0.296 N 
ATOM      3  C   LIG    1        0.923  -0.757   3.650  0.00  0.00    +0.126 C 
ATOM      4  C   LIG    1       -0.036  -1.621   4.470  0.00  0.00    +0.124 C 
ATOM      5  N   LIG    1       -1.303  -0.894   4.632  0.00  0.00    -0.325 N 
ATOM      6  C   LIG    1       -2.006  -0.418   3.433  0.00  0.00    +0.124 C 
ATOM      7  C   LIG    1       -1.043   0.451   2.614  0.00  0.00    +0.126 C 
ATOM      8  O   LIG    1        1.774  -1.109   1.101  0.00  0.00    -0.273 OA
ENDROOT
BRANCH   5   9
ATOM      9  C   LIG    1       -1.828  -0.660   5.902  0.00  0.00    +0.066 A 
ATOM     10  C   LIG    1       -1.484   0.499   6.594  0.00  0.00    +0.146 A 
ATOM     11  C   LIG    1       -2.007   0.735   7.847  0.00  0.00    +0.059 A 
ATOM     12  C   LIG    1       -2.875  -0.196   8.427  0.00  0.00    +0.055 A 
ATOM     13  C   LIG    1       -3.212  -1.360   7.731  0.00  0.00    +0.021 A 
ATOM     14  F   LIG    1       -0.646   1.397   6.032  0.00  0.00    -0.204 F 
ATOM     15  C   LIG    1       -2.690  -1.587   6.477  0.00  0.00    +0.027 A 
BRANCH  12  16
ATOM     16  C   LIG    1       -3.415   0.043   9.731  0.00  0.00    +0.099 C 
ATOM     17  N   LIG    1       -3.844   0.233  10.766  0.00  0.00    -0.191 NA
ENDBRANCH  12  16
ENDBRANCH   5   9
BRANCH   1  18
ATOM     18  C   LIG    1        0.002  -0.004   0.002  0.00  0.00    +0.201 C 
ATOM     19  C   LIG    1       -0.019   1.526   0.010  0.00  0.00    +0.048 C 
BRANCH  18  20
ATOM     20  O   LIG    1        0.671  -0.465  -1.174  0.00  0.00    -0.367 OA
BRANCH  20  21
ATOM     21  C   LIG    1       -0.194  -0.664  -2.294  0.00  0.00    +0.164 C 
BRANCH  21  22
ATOM     22  C   LIG    1        0.625  -1.155  -3.489  0.00  0.00    +0.015 C 
ATOM     23  C   LIG    1        0.319  -2.553  -4.029  0.00  0.00    +0.006 C 
ATOM     24  C   LIG    1       -0.102  -1.316  -4.826  0.00  0.00    +0.006 C 
ENDBRANCH  21  22
ENDBRANCH  20  21
ENDBRANCH  18  20
ENDBRANCH   1  18
TORSDOF 6
