REMARK  Name = ZINC000009570772
REMARK                            x       y       z     vdW  Elec       q    Type
REMARK                         _______ _______ _______ _____ _____    ______ ____
ROOT
ATOM      1  C   LIG    1       -2.449   1.117   0.020  0.00  0.00    +0.182 C 
ENDROOT
BRANCH   1   2
ATOM      2  C   LIG    1       -3.608   2.080   0.030  0.00  0.00    +0.174 A 
ATOM      3  N   LIG    1       -4.195   2.575   1.089  0.00  0.00    -0.111 NA
ATOM      4  N   LIG    1       -5.148   3.366   0.750  0.00  0.00    -0.023 NA
ATOM      5  N   LIG    1       -5.236   3.433  -0.535  0.00  0.00    -0.039 NA
ATOM      6  N   LIG    1       -4.229   2.599  -1.051  0.00  0.00    -0.196 N 
BRANCH   6   7
ATOM      7  C   LIG    1       -3.937   2.351  -2.401  0.00  0.00    +0.069 A 
ATOM      8  C   LIG    1       -2.623   2.152  -2.803  0.00  0.00    +0.029 A 
ATOM      9  C   LIG    1       -2.337   1.908  -4.132  0.00  0.00    +0.022 A 
ATOM     10  C   LIG    1       -3.360   1.863  -5.063  0.00  0.00    +0.041 A 
ATOM     11  C   LIG    1       -4.671   2.061  -4.665  0.00  0.00    +0.022 A 
ATOM     12 CL   LIG    1       -2.999   1.556  -6.733  0.00  0.00    -0.084 Cl
ATOM     13  C   LIG    1       -4.961   2.299  -3.336  0.00  0.00    +0.029 A 
ENDBRANCH   6   7
ENDBRANCH   1   2
BRANCH   1  14
ATOM     14  N   LIG    1       -1.191   1.867   0.018  0.00  0.00    -0.308 N 
ATOM     15  H   LIG    1       -1.204   2.837   0.023  0.00  0.00    +0.149 HD
ATOM     16  C   LIG    1       -0.014   1.209   0.009  0.00  0.00    +0.218 C 
ATOM     17  O   LIG    1        0.002  -0.004   0.002  0.00  0.00    -0.275 OA
BRANCH  16  18
ATOM     18  C   LIG    1        1.280   1.980   0.001  0.00  0.00    +0.130 C 
BRANCH  18  19
ATOM     19  C   LIG    1        2.439   1.016  -0.016  0.00  0.00    -0.038 A 
ATOM     20  C   LIG    1        2.978   0.564   1.174  0.00  0.00    +0.007 A 
ATOM     21  C   LIG    1        4.040  -0.320   1.161  0.00  0.00    +0.038 A 
ATOM     22  C   LIG    1        4.565  -0.752  -0.046  0.00  0.00    +0.123 A 
ATOM     23  F   LIG    1        5.603  -1.617  -0.060  0.00  0.00    -0.205 F 
ATOM     24  C   LIG    1        4.024  -0.299  -1.237  0.00  0.00    +0.038 A 
ATOM     25  C   LIG    1        2.958   0.581  -1.221  0.00  0.00    +0.007 A 
ENDBRANCH  18  19
ENDBRANCH  16  18
ENDBRANCH   1  14
TORSDOF 5
