REMARK  Name = ZINC000082087846
REMARK                            x       y       z     vdW  Elec       q    Type
REMARK                         _______ _______ _______ _____ _____    ______ ____
ROOT
ATOM      1  C   LIG    1       -1.409   0.364   4.382  0.00  0.00    +0.217 C 
ATOM      2  N   LIG    1       -2.572   0.655   4.999  0.00  0.00    -0.299 N 
ATOM      3  C   LIG    1       -2.586   1.101   6.398  0.00  0.00    +0.139 C 
ATOM      4  C   LIG    1       -3.362   2.424   6.481  0.00  0.00    +0.136 C 
ATOM      5  C   LIG    1       -4.751   2.234   5.869  0.00  0.00    +0.035 C 
ATOM      6  C   LIG    1       -4.612   1.849   4.394  0.00  0.00    +0.021 C 
ATOM      7  C   LIG    1       -3.850   0.525   4.286  0.00  0.00    +0.108 C 
ATOM      8  O   LIG    1       -0.361   0.471   4.983  0.00  0.00    -0.276 OA
ENDROOT
BRANCH   4   9
ATOM      9  O   LIG    1       -3.493   2.814   7.850  0.00  0.00    -0.370 OA
BRANCH   9  10
ATOM     10  C   LIG    1       -2.428   3.640   8.324  0.00  0.00    +0.197 C 
BRANCH  10  11
ATOM     11  C   LIG    1       -2.667   3.989   9.770  0.00  0.00    -0.004 A 
ATOM     12  C   LIG    1       -2.174   3.180  10.776  0.00  0.00    +0.116 A 
ATOM     13  N   LIG    1       -2.376   3.482  12.044  0.00  0.00    -0.263 NA
ATOM     14  C   LIG    1       -3.059   4.551  12.402  0.00  0.00    +0.111 A 
ATOM     15  C   LIG    1       -3.587   5.404  11.452  0.00  0.00    +0.020 A 
ATOM     16  C   LIG    1       -3.390   5.123  10.108  0.00  0.00    +0.009 A 
ENDBRANCH  10  11
ENDBRANCH   9  10
ENDBRANCH   4   9
BRANCH   1  17
ATOM     17  C   LIG    1       -1.412  -0.092   2.946  0.00  0.00    +0.117 C 
BRANCH  17  18
ATOM     18  C   LIG    1        0.025  -0.353   2.491  0.00  0.00    +0.132 C 
BRANCH  18  19
ATOM     19  N   LIG    1        0.023  -0.797   1.095  0.00  0.00    -0.334 N 
ATOM     20  C   LIG    1        0.034  -2.093   0.655  0.00  0.00    +0.107 A 
ATOM     21  C   LIG    1        0.028  -2.047  -0.691  0.00  0.00    +0.130 A 
ATOM     22  N   LIG    1        0.008  -0.759  -1.063  0.00  0.00    -0.241 NA
ATOM     23  C   LIG    1        0.002  -0.004   0.002  0.00  0.00    +0.107 A 
ATOM     24  C   LIG    1       -0.018   1.503   0.010  0.00  0.00    +0.086 C 
ENDBRANCH  18  19
ENDBRANCH  17  18
ENDBRANCH   1  17
TORSDOF 6
