REMARK  Name = ZINC000058195918
REMARK                            x       y       z     vdW  Elec       q    Type
REMARK                         _______ _______ _______ _____ _____    ______ ____
ROOT
ATOM      1  C   LIG    1       -2.301   0.286  -3.608  0.00  0.00    +0.038 A 
ATOM      2  C   LIG    1       -3.532   0.927  -3.459  0.00  0.00    +0.013 A 
ATOM      3  C   LIG    1       -4.290   1.232  -4.571  0.00  0.00    +0.003 A 
ATOM      4  C   LIG    1       -3.835   0.906  -5.834  0.00  0.00    +0.023 A 
ATOM      5  C   LIG    1       -2.611   0.268  -5.994  0.00  0.00    +0.034 A 
ATOM      6  C   LIG    1       -1.839  -0.038  -4.884  0.00  0.00    +0.036 A 
ENDROOT
BRANCH   1   7
ATOM      7  C   LIG    1       -1.486  -0.042  -2.418  0.00  0.00    +0.245 C 
ATOM      8  N   LIG    1       -1.935   0.273  -1.187  0.00  0.00    -0.296 N 
ATOM      9  H   LIG    1       -2.792   0.714  -1.081  0.00  0.00    +0.150 HD
ATOM     10  O   LIG    1       -0.412  -0.595  -2.551  0.00  0.00    -0.270 OA
BRANCH   8  11
ATOM     11  C   LIG    1       -1.128  -0.052  -0.008  0.00  0.00    +0.129 C 
ATOM     12  C   LIG    1       -0.903  -1.565   0.055  0.00  0.00    +0.043 C 
BRANCH  11  13
ATOM     13  C   LIG    1       -1.849   0.401   1.235  0.00  0.00    +0.330 C 
ATOM     14  O   LIG    1       -1.763  -0.245   2.253  0.00  0.00    -0.248 OA
BRANCH  13  15
ATOM     15  O   LIG    1       -2.587   1.522   1.212  0.00  0.00    -0.466 OA
ATOM     16  C   LIG    1       -3.254   1.897   2.446  0.00  0.00    +0.280 C 
ENDBRANCH  13  15
ENDBRANCH  11  13
BRANCH  11  17
ATOM     17  C   LIG    1        0.223   0.660  -0.103  0.00  0.00    +0.033 C 
ATOM     18  C   LIG    1       -0.002   2.172  -0.166  0.00  0.00    +0.006 C 
ENDBRANCH  11  17
ENDBRANCH   8  11
ENDBRANCH   1   7
BRANCH   5  19
ATOM     19  N   LIG    1       -2.154  -0.059  -7.275  0.00  0.00    -0.285 N 
ATOM     20  C   LIG    1       -1.416  -1.171  -7.464  0.00  0.00    +0.221 C 
ATOM     21  O   LIG    1       -1.228  -1.938  -6.543  0.00  0.00    -0.275 OA
ATOM     22  H   LIG    1       -2.368   0.514  -8.028  0.00  0.00    +0.155 HD
BRANCH  20  23
ATOM     23  C   LIG    1       -0.824  -1.462  -8.819  0.00  0.00    +0.078 C 
ATOM     24  C   LIG    1        0.002  -2.741  -8.970  0.00  0.00    -0.002 C 
ATOM     25  C   LIG    1        0.164  -3.628  -7.733  0.00  0.00    +0.008 C 
ATOM     26  C   LIG    1       -1.391  -2.651  -9.597  0.00  0.00    +0.017 C 
ENDBRANCH  20  23
ENDBRANCH   5  19
TORSDOF 7
