REMARK  Name = ZINC000012971520
REMARK                            x       y       z     vdW  Elec       q    Type
REMARK                         _______ _______ _______ _____ _____    ______ ____
ROOT
ATOM      1  S   LIG    1       -4.083  -4.968   0.000  0.00  0.00    +0.059 S 
ATOM      2  O   LIG    1       -5.026  -4.050  -0.535  0.00  0.00    -0.153 OA
ATOM      3  O   LIG    1       -3.853  -6.257  -0.552  0.00  0.00    -0.153 OA
ENDROOT
BRANCH   1   4
ATOM      4  C   LIG    1       -2.527  -4.141  -0.002  0.00  0.00    +0.106 A 
ATOM      5  C   LIG    1       -2.481  -2.762   0.011  0.00  0.00    +0.043 A 
ATOM      6  C   LIG    1       -1.247  -2.108   0.003  0.00  0.00    +0.061 A 
ATOM      7  C   LIG    1       -0.068  -2.856  -0.007  0.00  0.00    +0.015 A 
ATOM      8  C   LIG    1       -0.129  -4.234  -0.014  0.00  0.00    +0.003 A 
ATOM      9  C   LIG    1       -1.354  -4.875  -0.012  0.00  0.00    +0.028 A 
BRANCH   6  10
ATOM     10  C   LIG    1       -1.190  -0.632   0.010  0.00  0.00    +0.339 C 
ATOM     11  O   LIG    1       -2.217   0.016   0.023  0.00  0.00    -0.245 OA
BRANCH  10  12
ATOM     12  O   LIG    1        0.002  -0.004   0.002  0.00  0.00    -0.464 OA
ATOM     13  C   LIG    1       -0.018   1.448   0.010  0.00  0.00    +0.280 C 
ENDBRANCH  10  12
ENDBRANCH   6  10
ENDBRANCH   1   4
BRANCH   1  14
ATOM     14  N   LIG    1       -4.508  -5.207   1.583  0.00  0.00    -0.182 NA
ATOM     15  H   LIG    1       -4.575  -6.108   1.936  0.00  0.00    +0.149 HD
BRANCH  14  16
ATOM     16  C   LIG    1       -4.784  -4.058   2.449  0.00  0.00    +0.110 C 
ATOM     17  C   LIG    1       -4.317  -4.364   3.877  0.00  0.00    +0.025 C 
ATOM     18  C   LIG    1       -4.841  -3.284   4.827  0.00  0.00    +0.010 C 
ATOM     19  C   LIG    1       -6.361  -3.425   4.976  0.00  0.00    +0.075 C 
ATOM     20  C   LIG    1       -6.969  -3.510   3.597  0.00  0.00    +0.110 A 
ATOM     21  O   LIG    1       -8.250  -3.332   3.253  0.00  0.00    -0.467 OA
ATOM     22  C   LIG    1       -8.383  -3.492   1.924  0.00  0.00    +0.195 A 
ATOM     23  C   LIG    1       -7.172  -3.777   1.405  0.00  0.00    +0.046 A 
ATOM     24  C   LIG    1       -6.266  -3.789   2.480  0.00  0.00    +0.012 A 
ENDBRANCH  14  16
ENDBRANCH   1  14
TORSDOF 5
