REMARK  Name = ZINC000084688981
REMARK                            x       y       z     vdW  Elec       q    Type
REMARK                         _______ _______ _______ _____ _____    ______ ____
ROOT
ATOM      1  N   LIG    1        1.056  -6.220   0.716  0.00  0.00    -0.285 NA
ENDROOT
BRANCH   1   2
ATOM      2  C   LIG    1        2.317  -6.023   1.444  0.00  0.00    +0.058 C 
ATOM      3  C   LIG    1        2.338  -6.385   2.930  0.00  0.00    +0.020 C 
ATOM      4  C   LIG    1        2.357  -4.917   2.500  0.00  0.00    +0.020 C 
ENDBRANCH   1   2
BRANCH   1   5
ATOM      5  C   LIG    1        0.760  -7.650   0.553  0.00  0.00    +0.161 C 
BRANCH   5   6
ATOM      6  C   LIG    1        0.339  -8.230   1.879  0.00  0.00    +0.150 A 
ATOM      7  N   LIG    1        1.226  -8.844   2.641  0.00  0.00    -0.198 NA
ATOM      8  C   LIG    1        0.858  -9.358   3.813  0.00  0.00    +0.217 A 
ATOM      9  N   LIG    1       -0.404  -9.252   4.215  0.00  0.00    -0.181 NA
ATOM     10  C   LIG    1       -1.293  -8.634   3.446  0.00  0.00    +0.222 A 
ATOM     11  N   LIG    1       -0.916  -8.118   2.278  0.00  0.00    -0.198 NA
BRANCH   8  12
ATOM     12  N   LIG    1        1.786  -9.999   4.608  0.00  0.00    -0.327 N 
ATOM     13  H   LIG    1        1.517 -10.373   5.462  0.00  0.00    +0.145 HD
ATOM     14  H   LIG    1        2.707 -10.076   4.314  0.00  0.00    +0.145 HD
ENDBRANCH   8  12
BRANCH  10  15
ATOM     15  N   LIG    1       -2.604  -8.521   3.860  0.00  0.00    -0.306 N 
ATOM     16  C   LIG    1       -3.017  -9.083   5.149  0.00  0.00    +0.132 C 
ATOM     17  C   LIG    1       -3.584  -7.839   3.011  0.00  0.00    +0.132 C 
ENDBRANCH  10  15
ENDBRANCH   5   6
ENDBRANCH   1   5
BRANCH   1  18
ATOM     18  C   LIG    1        1.086  -5.537  -0.584  0.00  0.00    +0.159 C 
BRANCH  18  19
ATOM     19  C   LIG    1        1.146  -4.047  -0.368  0.00  0.00    +0.119 A 
ATOM     20  O   LIG    1        0.089  -3.227  -0.251  0.00  0.00    -0.463 OA
ATOM     21  C   LIG    1        0.517  -1.967  -0.070  0.00  0.00    +0.109 A 
ATOM     22  C   LIG    1        1.862  -1.973  -0.060  0.00  0.00    +0.045 A 
ATOM     23  C   LIG    1        2.268  -3.314  -0.252  0.00  0.00    +0.046 A 
BRANCH  21  24
ATOM     24  C   LIG    1       -0.361  -0.754   0.099  0.00  0.00    +0.058 C 
ATOM     25  C   LIG    1       -1.864  -0.987   0.266  0.00  0.00    +0.015 C 
ATOM     26  C   LIG    1       -1.319  -0.410  -1.042  0.00  0.00    -0.003 C 
ATOM     27  C   LIG    1       -1.580   1.071  -1.324  0.00  0.00    +0.008 C 
ENDBRANCH  21  24
ENDBRANCH  18  19
ENDBRANCH   1  18
TORSDOF 8
