REMARK  Name = ZINC000095987590
REMARK                            x       y       z     vdW  Elec       q    Type
REMARK                         _______ _______ _______ _____ _____    ______ ____
ROOT
ATOM      1  N   LIG    1        0.777   0.172   1.506  0.00  0.00    -0.293 N 
ATOM      2  H   LIG    1        0.301  -0.041   2.324  0.00  0.00    +0.151 HD
ATOM      3  C   LIG    1        2.075  -0.166   1.373  0.00  0.00    +0.303 C 
ATOM      4  N   LIG    1        2.740  -0.706   2.413  0.00  0.00    -0.283 N 
ATOM      5  C   LIG    1        2.035  -1.048   3.656  0.00  0.00    +0.109 C 
ATOM      6  C   LIG    1        2.753  -0.377   4.831  0.00  0.00    +0.019 C 
ATOM      7  C   LIG    1        4.230  -0.776   4.816  0.00  0.00    +0.003 C 
ATOM      8  C   LIG    1        4.877  -0.294   3.516  0.00  0.00    +0.023 C 
ATOM      9  C   LIG    1        4.183  -0.970   2.324  0.00  0.00    +0.080 C 
ATOM     10  O   LIG    1        2.646   0.017   0.315  0.00  0.00    -0.253 OA
ENDROOT
BRANCH   1  11
ATOM     11  C   LIG    1        0.084   0.861   0.414  0.00  0.00    +0.102 C 
ATOM     12  C   LIG    1        0.335   2.366   0.520  0.00  0.00    +0.033 C 
BRANCH  11  13
ATOM     13  C   LIG    1       -1.396   0.590   0.508  0.00  0.00    -0.027 A 
ATOM     14  C   LIG    1       -2.018   0.578   1.742  0.00  0.00    +0.007 A 
ATOM     15  C   LIG    1       -3.373   0.330   1.832  0.00  0.00    +0.028 A 
ATOM     16  C   LIG    1       -4.112   0.093   0.680  0.00  0.00    +0.067 A 
ATOM     17  C   LIG    1       -3.485   0.107  -0.558  0.00  0.00    +0.028 A 
ATOM     18  C   LIG    1       -2.129   0.361  -0.642  0.00  0.00    +0.007 A 
BRANCH  16  19
ATOM     19  N   LIG    1       -5.489  -0.159   0.768  0.00  0.00    -0.220 N 
ATOM     20  N   LIG    1       -6.182  -0.198   1.851  0.00  0.00    -0.061 NA
ATOM     21  N   LIG    1       -7.414  -0.450   1.582  0.00  0.00    -0.138 NA
ATOM     22  C   LIG    1       -7.552  -0.594   0.259  0.00  0.00    +0.156 A 
ATOM     23  C   LIG    1       -6.323  -0.410  -0.278  0.00  0.00    +0.136 A 
ENDBRANCH  16  19
ENDBRANCH  11  13
ENDBRANCH   1  11
BRANCH   9  24
ATOM     24  C   LIG    1        4.730  -0.393   1.017  0.00  0.00    +0.050 C 
BRANCH  24  25
ATOM     25  C   LIG    1        6.242  -0.619   0.954  0.00  0.00    +0.157 C 
BRANCH  25  26
ATOM     26  O   LIG    1        6.736  -0.188  -0.316  0.00  0.00    -0.395 OA
ATOM     27  H   LIG    1        7.690  -0.301  -0.426  0.00  0.00    +0.209 HD
ENDBRANCH  25  26
ENDBRANCH  24  25
ENDBRANCH   9  24
TORSDOF 6
