REMARK  Name = ZINC000095987477
REMARK                            x       y       z     vdW  Elec       q    Type
REMARK                         _______ _______ _______ _____ _____    ______ ____
ROOT
ATOM      1  C   LIG    1       -1.270   1.050   1.417  0.00  0.00    +0.028 C 
ATOM      2  C   LIG    1       -0.822  -0.336   0.947  0.00  0.00    +0.074 C 
ATOM      3  N   LIG    1        0.446  -0.691   1.598  0.00  0.00    -0.282 N 
ATOM      4  C   LIG    1        1.102   0.206   2.361  0.00  0.00    +0.307 C 
ATOM      5  N   LIG    1        2.311  -0.100   2.872  0.00  0.00    -0.268 N 
ATOM      6  H   LIG    1        2.738  -0.938   2.638  0.00  0.00    +0.156 HD
ATOM      7  O   LIG    1        0.603   1.292   2.586  0.00  0.00    -0.252 OA
ATOM      8  C   LIG    1        0.983  -2.045   1.407  0.00  0.00    +0.122 C 
ATOM      9  C   LIG    1       -0.097  -3.065   1.781  0.00  0.00    +0.092 C 
ATOM     10  C   LIG    1       -1.368  -2.773   0.979  0.00  0.00    +0.016 C 
ATOM     11  C   LIG    1       -1.882  -1.374   1.327  0.00  0.00    +0.023 C 
ENDROOT
BRANCH   5  12
ATOM     12  C   LIG    1        2.949   0.792   3.742  0.00  0.00    +0.053 A 
ATOM     13  C   LIG    1        3.709   0.318   4.808  0.00  0.00    +0.027 A 
ATOM     14  C   LIG    1        4.321   1.240   5.641  0.00  0.00    +0.034 A 
ATOM     15  C   LIG    1        4.159   2.590   5.390  0.00  0.00    +0.144 A 
ATOM     16  N   LIG    1        3.432   3.007   4.371  0.00  0.00    -0.249 NA
ATOM     17  C   LIG    1        2.837   2.164   3.551  0.00  0.00    +0.134 A 
BRANCH  15  18
ATOM     18  C   LIG    1        4.822   3.599   6.292  0.00  0.00    +0.434 C 
ATOM     19  F   LIG    1        4.930   3.070   7.583  0.00  0.00    -0.164 F 
ATOM     20  F   LIG    1        4.053   4.767   6.330  0.00  0.00    -0.164 F 
ATOM     21  F   LIG    1        6.097   3.896   5.801  0.00  0.00    -0.164 F 
ENDBRANCH  15  18
ENDBRANCH   5  12
BRANCH   9  22
ATOM     22  C   LIG    1        0.390  -4.455   1.463  0.00  0.00    +0.215 C 
ATOM     23  N   LIG    1        1.502  -4.931   2.057  0.00  0.00    -0.329 N 
ATOM     24  H   LIG    1        1.989  -4.379   2.689  0.00  0.00    +0.145 HD
ATOM     25  H   LIG    1        1.816  -5.826   1.853  0.00  0.00    +0.145 HD
ATOM     26  O   LIG    1       -0.219  -5.145   0.673  0.00  0.00    -0.276 OA
ENDBRANCH   9  22
TORSDOF 3
