REMARK  Name = ZINC000095987629
REMARK                            x       y       z     vdW  Elec       q    Type
REMARK                         _______ _______ _______ _____ _____    ______ ____
ROOT
ATOM      1  N   LIG    1        2.802  -0.340  -2.528  0.00  0.00    -0.297 N 
ATOM      2  C   LIG    1        4.079   0.022  -2.761  0.00  0.00    +0.300 C 
ATOM      3  O   LIG    1        4.693   0.658  -1.926  0.00  0.00    -0.253 OA
ATOM      4  N   LIG    1        4.675  -0.320  -3.920  0.00  0.00    -0.294 N 
ATOM      5  H   LIG    1        4.185  -0.827  -4.587  0.00  0.00    +0.151 HD
ATOM      6  H   LIG    1        2.312  -0.847  -3.194  0.00  0.00    +0.150 HD
ENDROOT
BRANCH   4   7
ATOM      7  C   LIG    1        6.063   0.074  -4.174  0.00  0.00    +0.110 C 
ATOM      8  C   LIG    1        7.039  -0.996  -3.627  0.00  0.00    +0.053 C 
ATOM      9  C   LIG    1        7.363  -1.821  -4.899  0.00  0.00    +0.162 C 
ATOM     10  O   LIG    1        7.415  -0.824  -5.942  0.00  0.00    -0.370 OA
ATOM     11  C   LIG    1        6.346   0.108  -5.689  0.00  0.00    +0.169 C 
BRANCH  11  12
ATOM     12  C   LIG    1        6.764   1.494  -6.108  0.00  0.00    -0.014 A 
ATOM     13  C   LIG    1        8.085   1.883  -5.987  0.00  0.00    +0.009 A 
ATOM     14  C   LIG    1        8.471   3.153  -6.371  0.00  0.00    +0.041 A 
ATOM     15  C   LIG    1        7.535   4.037  -6.878  0.00  0.00    +0.158 A 
ATOM     16  C   LIG    1        6.210   3.647  -7.001  0.00  0.00    +0.159 A 
ATOM     17  F   LIG    1        5.294   4.508  -7.496  0.00  0.00    -0.202 F 
ATOM     18  F   LIG    1        7.911   5.279  -7.254  0.00  0.00    -0.202 F 
ATOM     19  C   LIG    1        5.827   2.372  -6.620  0.00  0.00    +0.047 A 
ENDBRANCH  11  12
ENDBRANCH   4   7
BRANCH   1  20
ATOM     20  C   LIG    1        2.154   0.032  -1.268  0.00  0.00    +0.137 C 
BRANCH  20  21
ATOM     21  C   LIG    1        0.718  -0.497  -1.257  0.00  0.00    +0.134 C 
BRANCH  21  22
ATOM     22  C   LIG    1        0.002  -0.004   0.002  0.00  0.00    +0.013 C 
ATOM     23  C   LIG    1       -1.433  -0.534   0.013  0.00  0.00    +0.010 C 
ATOM     24  C   LIG    1       -0.019   1.526   0.010  0.00  0.00    +0.010 C 
ENDBRANCH  21  22
BRANCH  21  25
ATOM     25  O   LIG    1        0.738  -1.926  -1.265  0.00  0.00    -0.390 OA
ATOM     26  H   LIG    1        1.192  -2.318  -0.506  0.00  0.00    +0.210 HD
ENDBRANCH  21  25
ENDBRANCH  20  21
ENDBRANCH   1  20
TORSDOF 6
