REMARK  Name = ZINC000095987640
REMARK                            x       y       z     vdW  Elec       q    Type
REMARK                         _______ _______ _______ _____ _____    ______ ____
ROOT
ATOM      1  N   VAL A  1        0.680   0.150  -2.423  0.00  0.00    -0.294 N 
ATOM      2  C   UNK A  0        1.129   1.388  -2.709  0.00  0.00    +0.300 C 
ATOM      3  O   UNK A  0        1.771   2.007  -1.883  0.00  0.00    -0.253 OA
ATOM      4  N   UNK A  0        0.865   1.939  -3.910  0.00  0.00    -0.294 N 
ATOM      5  H   UNK A  0        0.353   1.445  -4.569  0.00  0.00    +0.151 HD
ATOM      6  H   VAL A  1        0.167  -0.344  -3.082  0.00  0.00    +0.151 HD
ENDROOT
BRANCH   4   7
ATOM      7  C   UNK A  0        1.353   3.285  -4.221  0.00  0.00    +0.110 C 
ATOM      8  C   UNK A  0        2.777   3.219  -4.824  0.00  0.00    +0.053 C 
ATOM      9  C   UNK A  0        2.490   3.306  -6.345  0.00  0.00    +0.162 C 
ATOM     10  O   UNK A  0        1.384   4.229  -6.427  0.00  0.00    -0.370 OA
ATOM     11  C   UNK A  0        0.499   3.926  -5.332  0.00  0.00    +0.169 C 
BRANCH  11  12
ATOM     12  C   UNK A  0       -0.145   5.191  -4.827  0.00  0.00    -0.014 A 
ATOM     13  C   UNK A  0       -1.437   5.161  -4.336  0.00  0.00    +0.047 A 
ATOM     14  C   UNK A  0       -2.027   6.322  -3.869  0.00  0.00    +0.159 A 
ATOM     15  F   UNK A  0       -3.288   6.292  -3.384  0.00  0.00    -0.202 F 
ATOM     16  C   UNK A  0       -1.325   7.517  -3.902  0.00  0.00    +0.158 A 
ATOM     17  F   UNK A  0       -1.901   8.653  -3.450  0.00  0.00    -0.202 F 
ATOM     18  C   UNK A  0       -0.034   7.545  -4.399  0.00  0.00    +0.041 A 
ATOM     19  C   UNK A  0        0.555   6.383  -4.861  0.00  0.00    +0.009 A 
ENDBRANCH  11  12
ENDBRANCH   4   7
BRANCH   1  20
ATOM     20  CA  VAL A  1        0.966  -0.450  -1.117  0.00  0.00    +0.102 C 
BRANCH  20  21
ATOM     21  CB  VAL A  1       -0.086   0.006  -0.105  0.00  0.00    +0.005 C 
ATOM     22  CG2 VAL A  1        0.153  -0.699   1.232  0.00  0.00    +0.009 C 
ATOM     23  CG1 VAL A  1        0.018   1.520   0.092  0.00  0.00    +0.009 C 
ENDBRANCH  20  21
BRANCH  20  24
ATOM     24  C   VAL A  1        0.931  -1.975  -1.237  0.00  0.00    +0.178 C 
BRANCH  24  25
ATOM     25  O   VAL A  1       -0.396  -2.396  -1.562  0.00  0.00    -0.393 OA
ATOM     26  H   VAL A  1       -0.493  -3.354  -1.653  0.00  0.00    +0.209 HD
ENDBRANCH  24  25
ENDBRANCH  20  24
ENDBRANCH   1  20
TORSDOF 6
