REMARK  Name = ZINC000058179412
REMARK                            x       y       z     vdW  Elec       q    Type
REMARK                         _______ _______ _______ _____ _____    ______ ____
ROOT
ATOM      1  O   LIG    1       -0.124   0.387  -0.374  0.00  0.00    -0.275 OA
ATOM      2  C   LIG    1       -0.084   1.594  -0.483  0.00  0.00    +0.217 C 
ATOM      3  N   LIG    1        1.103   2.233  -0.468  0.00  0.00    -0.312 N 
ATOM      4  H   LIG    1        1.135   3.198  -0.555  0.00  0.00    +0.149 HD
ENDROOT
BRANCH   3   5
ATOM      5  C   LIG    1        2.344   1.469  -0.321  0.00  0.00    +0.076 C 
ATOM      6  C   LIG    1        3.429   2.368   0.277  0.00  0.00    +0.041 C 
ATOM      7  C   LIG    1        4.715   1.556   0.462  0.00  0.00    +0.110 C 
ATOM      8  N   LIG    1        5.078   0.947  -0.825  0.00  0.00    -0.297 N 
ATOM      9  C   LIG    1        6.307   1.129  -1.348  0.00  0.00    +0.250 C 
ATOM     10  O   LIG    1        6.618   0.565  -2.380  0.00  0.00    -0.270 OA
ATOM     11  C   LIG    1        4.076   0.136  -1.530  0.00  0.00    +0.110 C 
ATOM     12  C   LIG    1        2.797   0.963  -1.692  0.00  0.00    +0.041 C 
BRANCH   9  13
ATOM     13  C   LIG    1        7.273   2.011  -0.671  0.00  0.00    +0.074 A 
ATOM     14  C   LIG    1        7.531   2.104   0.774  0.00  0.00    +0.054 A 
ATOM     15  C   LIG    1        8.489   3.032   0.919  0.00  0.00    +0.195 A 
ATOM     16  O   LIG    1        8.824   3.510  -0.289  0.00  0.00    -0.470 OA
ATOM     17  C   LIG    1        8.112   2.916  -1.252  0.00  0.00    +0.207 A 
ENDBRANCH   9  13
ENDBRANCH   3   5
BRANCH   2  18
ATOM     18  C   LIG    1       -1.360   2.380  -0.640  0.00  0.00    +0.083 C 
ATOM     19  C   LIG    1       -2.674   1.596  -0.658  0.00  0.00    +0.033 C 
ATOM     20  C   LIG    1       -2.134   2.215  -1.950  0.00  0.00    +0.022 C 
BRANCH  19  21
ATOM     21  C   LIG    1       -3.880   2.244  -0.027  0.00  0.00    -0.025 A 
ATOM     22  C   LIG    1       -4.523   1.639   1.042  0.00  0.00    +0.007 A 
ATOM     23  C   LIG    1       -5.628   2.272   1.591  0.00  0.00    +0.020 A 
ATOM     24  C   LIG    1       -6.048   3.476   1.058  0.00  0.00    +0.111 A 
ATOM     25  N   LIG    1       -5.412   4.022   0.040  0.00  0.00    -0.263 NA
ATOM     26  C   LIG    1       -4.355   3.452  -0.503  0.00  0.00    +0.114 A 
ENDBRANCH  19  21
ENDBRANCH   2  18
TORSDOF 4
