REMARK  Name = ZINC000188270153
REMARK                            x       y       z     vdW  Elec       q    Type
REMARK                         _______ _______ _______ _____ _____    ______ ____
ROOT
ATOM      1  N   LIG    1        0.019   0.004   2.411  0.00  0.00    -0.258 N 
ATOM      2  C   LIG    1       -1.090   0.380   3.120  0.00  0.00    +0.198 A 
ATOM      3  N   LIG    1       -0.686   0.982   4.212  0.00  0.00    -0.120 NA
ATOM      4  N   LIG    1        0.715   0.994   4.209  0.00  0.00    -0.112 NA
ATOM      5  C   LIG    1        1.124   0.395   3.118  0.00  0.00    +0.225 A 
ENDROOT
BRANCH   1   6
ATOM      6  C   LIG    1        0.023  -0.669   1.180  0.00  0.00    +0.055 A 
ATOM      7  C   LIG    1        0.028  -2.057   1.146  0.00  0.00    +0.026 A 
ATOM      8  C   LIG    1        0.032  -2.716  -0.068  0.00  0.00    +0.002 A 
ATOM      9  C   LIG    1        0.023  -1.996  -1.248  0.00  0.00    +0.000 A 
ATOM     10  C   LIG    1        0.011  -0.614  -1.217  0.00  0.00    +0.005 A 
ATOM     11  C   LIG    1        0.008   0.052  -0.007  0.00  0.00    -0.026 A 
ATOM     12  C   LIG    1       -0.006   1.558   0.026  0.00  0.00    +0.046 C 
ENDBRANCH   1   6
BRANCH   5  13
ATOM     13  N   LIG    1        2.446   0.199   2.740  0.00  0.00    -0.295 N 
ATOM     14  C   LIG    1        3.550   0.782   3.519  0.00  0.00    +0.136 C 
ATOM     15  C   LIG    1        4.566  -0.325   3.822  0.00  0.00    +0.179 C 
ATOM     16  O   LIG    1        4.926  -0.980   2.603  0.00  0.00    -0.377 OA
ATOM     17  C   LIG    1        3.838  -1.639   1.950  0.00  0.00    +0.179 C 
ATOM     18  C   LIG    1        2.784  -0.604   1.554  0.00  0.00    +0.136 C 
ENDBRANCH   5  13
BRANCH   2  19
ATOM     19  S   LIG    1       -2.765   0.105   2.647  0.00  0.00    -0.080 S 
BRANCH  19  20
ATOM     20  C   LIG    1       -3.701   0.843   4.014  0.00  0.00    +0.082 C 
ATOM     21  C   LIG    1       -3.533   2.375   4.018  0.00  0.00    +0.174 C 
ATOM     22  O   LIG    1       -4.835   2.946   3.782  0.00  0.00    -0.379 OA
ATOM     23  C   LIG    1       -5.806   1.989   4.257  0.00  0.00    +0.161 C 
ATOM     24  C   LIG    1       -5.220   0.626   3.810  0.00  0.00    +0.045 C 
ENDBRANCH  19  20
ENDBRANCH   2  19
TORSDOF 4
