REMARK  Name = ZINC000095989093
REMARK                            x       y       z     vdW  Elec       q    Type
REMARK                         _______ _______ _______ _____ _____    ______ ____
ROOT
ATOM      1  C   LIG    1       -3.654  -2.662  -2.110  0.00  0.00    +0.136 A 
ATOM      2  C   LIG    1       -4.909  -3.189  -2.215  0.00  0.00    +0.050 A 
ATOM      3  C   LIG    1       -4.946  -3.930  -3.401  0.00  0.00    +0.055 A 
ATOM      4  C   LIG    1       -3.699  -3.823  -3.975  0.00  0.00    +0.190 A 
ATOM      5  O   LIG    1       -2.935  -3.046  -3.178  0.00  0.00    -0.450 OA
ENDROOT
BRANCH   1   6
ATOM      6  C   LIG    1       -3.169  -1.807  -1.008  0.00  0.00    +0.018 A 
ATOM      7  C   LIG    1       -4.018  -1.477   0.050  0.00  0.00    +0.011 A 
ATOM      8  C   LIG    1       -3.558  -0.678   1.076  0.00  0.00    +0.001 A 
ATOM      9  C   LIG    1       -2.259  -0.203   1.058  0.00  0.00    +0.004 A 
ATOM     10  C   LIG    1       -1.412  -0.526   0.013  0.00  0.00    -0.044 A 
ATOM     11  C   LIG    1       -1.860  -1.319  -1.023  0.00  0.00    +0.015 A 
BRANCH  10  12
ATOM     12  C   LIG    1        0.002  -0.004   0.002  0.00  0.00    +0.013 C 
ATOM     13  C   LIG    1        0.742  -0.511   1.242  0.00  0.00    +0.012 C 
ATOM     14  C   LIG    1       -0.019   1.526   0.010  0.00  0.00    +0.012 C 
ENDBRANCH  10  12
ENDBRANCH   1   6
BRANCH   4  15
ATOM     15  C   LIG    1       -3.276  -4.440  -5.235  0.00  0.00    +0.279 C 
ATOM     16  N   LIG    1       -2.020  -4.255  -5.688  0.00  0.00    -0.307 N 
ATOM     17  H   LIG    1       -1.396  -3.714  -5.180  0.00  0.00    +0.149 HD
ATOM     18  O   LIG    1       -4.059  -5.120  -5.873  0.00  0.00    -0.267 OA
BRANCH  16  19
ATOM     19  C   LIG    1       -1.598  -4.873  -6.948  0.00  0.00    +0.129 C 
BRANCH  19  20
ATOM     20  C   LIG    1       -0.139  -4.508  -7.230  0.00  0.00    +0.203 C 
BRANCH  20  21
ATOM     21  S   LIG    1        0.384  -5.272  -8.790  0.00  0.00    +0.028 S 
ATOM     22  O   LIG    1        0.453  -6.685  -8.655  0.00  0.00    -0.158 OA
ATOM     23  O   LIG    1       -0.289  -4.673  -9.889  0.00  0.00    -0.158 OA
BRANCH  21  24
ATOM     24  N   LIG    1        1.962  -4.803  -8.972  0.00  0.00    -0.208 NA
ATOM     25  H   LIG    1        2.380  -4.238  -8.303  0.00  0.00    +0.144 HD
ATOM     26  H   LIG    1        2.468  -5.092  -9.747  0.00  0.00    +0.144 HD
ENDBRANCH  21  24
ENDBRANCH  20  21
ENDBRANCH  19  20
ENDBRANCH  16  19
ENDBRANCH   4  15
TORSDOF 7
