REMARK  Name = ZINC000082092736
REMARK                            x       y       z     vdW  Elec       q    Type
REMARK                         _______ _______ _______ _____ _____    ______ ____
ROOT
ATOM      1  C   LIG    1        1.373  -4.695   0.200  0.00  0.00    +0.237 C 
ATOM      2  N   LIG    1        1.755  -5.986   0.257  0.00  0.00    -0.299 N 
ATOM      3  C   LIG    1        0.746  -7.046   0.323  0.00  0.00    +0.132 C 
ATOM      4  O   LIG    1        2.208  -3.817   0.146  0.00  0.00    -0.274 OA
ENDROOT
BRANCH   2   5
ATOM      5  C   LIG    1        3.179  -6.329   0.255  0.00  0.00    +0.143 C 
BRANCH   5   6
ATOM      6  C   LIG    1        3.663  -6.477   1.674  0.00  0.00    -0.021 A 
ATOM      7  C   LIG    1        2.784  -6.388   2.710  0.00  0.00    +0.006 A 
ATOM      8  C   LIG    1        3.215  -6.527   4.027  0.00  0.00    +0.002 A 
ATOM      9  C   LIG    1        4.527  -6.747   4.318  0.00  0.00    +0.028 A 
ATOM     10  C   LIG    1        5.465  -6.840   3.276  0.00  0.00    +0.071 A 
ATOM     11  N   LIG    1        6.760  -7.055   3.530  0.00  0.00    -0.255 NA
ATOM     12  C   LIG    1        7.639  -7.142   2.562  0.00  0.00    +0.111 A 
ATOM     13  C   LIG    1        7.272  -7.016   1.224  0.00  0.00    +0.020 A 
ATOM     14  C   LIG    1        5.965  -6.796   0.894  0.00  0.00    +0.012 A 
ATOM     15  C   LIG    1        5.024  -6.703   1.936  0.00  0.00    +0.005 A 
ENDBRANCH   5   6
ENDBRANCH   2   5
BRANCH   1  16
ATOM     16  C   LIG    1       -0.092  -4.342   0.203  0.00  0.00    +0.243 C 
BRANCH  16  17
ATOM     17  N   LIG    1       -0.244  -2.886   0.134  0.00  0.00    -0.220 N 
ATOM     18  N   LIG    1       -0.293  -2.210   1.224  0.00  0.00    -0.173 NA
ATOM     19  C   LIG    1       -0.421  -0.912   1.238  0.00  0.00    +0.062 A 
ATOM     20  C   LIG    1       -0.471  -0.179   2.554  0.00  0.00    +0.068 C 
ATOM     21  C   LIG    1       -0.523  -0.194   0.035  0.00  0.00    -0.023 A 
ATOM     22  C   LIG    1       -0.678   1.305   0.041  0.00  0.00    +0.046 C 
ATOM     23  C   LIG    1       -0.474  -0.889  -1.140  0.00  0.00    +0.077 A 
ATOM     24  C   LIG    1       -0.328  -2.291  -1.071  0.00  0.00    +0.268 A 
ATOM     25  O   LIG    1       -0.278  -2.957  -2.093  0.00  0.00    -0.266 OA
ENDBRANCH  16  17
ENDBRANCH   1  16
TORSDOF 4
