REMARK  Name = ZINC000069616847
REMARK                            x       y       z     vdW  Elec       q    Type
REMARK                         _______ _______ _______ _____ _____    ______ ____
ROOT
ATOM      1  C   LIG    1       -2.442  -2.801  -0.003  0.00  0.00    +0.250 C 
ATOM      2  O   LIG    1       -3.496  -2.194   0.006  0.00  0.00    -0.270 OA
ATOM      3  N   LIG    1       -2.440  -4.149  -0.010  0.00  0.00    -0.279 N 
ATOM      4  H   LIG    1       -1.600  -4.633  -0.017  0.00  0.00    +0.155 HD
ENDROOT
BRANCH   1   5
ATOM      5  C   LIG    1       -1.165  -2.062  -0.004  0.00  0.00    +0.053 A 
ATOM      6  C   LIG    1       -1.161  -0.682   0.004  0.00  0.00    +0.101 A 
ATOM      7  N   LIG    1        0.002  -0.004   0.002  0.00  0.00    -0.318 N 
ATOM      8  C   LIG    1       -0.018   1.461   0.010  0.00  0.00    +0.152 C 
ATOM      9  C   LIG    1        1.182  -0.650  -0.013  0.00  0.00    +0.251 A 
ATOM     10  O   LIG    1        2.221  -0.012  -0.015  0.00  0.00    -0.268 OA
ATOM     11  C   LIG    1        1.226  -2.057  -0.016  0.00  0.00    +0.071 A 
ATOM     12  C   LIG    1        0.065  -2.764  -0.014  0.00  0.00    +0.020 A 
ENDBRANCH   1   5
BRANCH   3  13
ATOM     13  C   LIG    1       -3.658  -4.853  -0.009  0.00  0.00    +0.072 A 
ATOM     14  C   LIG    1       -4.941  -4.285   0.001  0.00  0.00    +0.158 A 
ATOM     15  N   LIG    1       -5.821  -5.254  -0.003  0.00  0.00    -0.173 NA
ATOM     16  N   LIG    1       -5.134  -6.475  -0.007  0.00  0.00    -0.237 N 
ATOM     17  C   LIG    1       -3.801  -6.203  -0.010  0.00  0.00    +0.137 A 
BRANCH  16  18
ATOM     18  C   LIG    1       -5.717  -7.750  -0.007  0.00  0.00    +0.084 A 
ATOM     19  C   LIG    1       -7.100  -7.884  -0.004  0.00  0.00    +0.066 A 
ATOM     20 CL   LIG    1       -8.110  -6.471  -0.006  0.00  0.00    -0.081 Cl
ATOM     21  C   LIG    1       -7.671  -9.142  -0.010  0.00  0.00    +0.022 A 
ATOM     22  C   LIG    1       -6.867 -10.267  -0.007  0.00  0.00    +0.002 A 
ATOM     23  C   LIG    1       -5.490 -10.137  -0.005  0.00  0.00    +0.002 A 
ATOM     24  C   LIG    1       -4.913  -8.882  -0.006  0.00  0.00    +0.029 A 
ENDBRANCH  16  18
ENDBRANCH   3  13
TORSDOF 3
