REMARK  Name = ZINC000069599785
REMARK                            x       y       z     vdW  Elec       q    Type
REMARK                         _______ _______ _______ _____ _____    ______ ____
ROOT
ATOM      1  N   LIG    1        2.790  -0.764   4.272  0.00  0.00    -0.291 NA
ATOM      2  C   LIG    1        3.571  -1.610   5.185  0.00  0.00    +0.104 C 
ATOM      3  C   LIG    1        4.639  -0.757   5.877  0.00  0.00    +0.123 C 
ATOM      4  N   LIG    1        3.980   0.396   6.509  0.00  0.00    -0.295 N 
ATOM      5  C   LIG    1        4.203   0.696   7.803  0.00  0.00    +0.253 C 
ATOM      6  O   LIG    1        5.012   0.054   8.447  0.00  0.00    -0.269 OA
ATOM      7  C   LIG    1        3.072   1.212   5.690  0.00  0.00    +0.123 C 
ATOM      8  C   LIG    1        2.065   0.282   5.005  0.00  0.00    +0.104 C 
ENDROOT
BRANCH   5   9
ATOM      9  C   LIG    1        3.470   1.796   8.437  0.00  0.00    +0.074 A 
ATOM     10  C   LIG    1        2.875   1.748   9.666  0.00  0.00    +0.021 A 
ATOM     11  C   LIG    1        2.255   2.924  10.016  0.00  0.00    +0.008 A 
ATOM     12  C   LIG    1        2.339   3.903   9.107  0.00  0.00    +0.046 A 
ATOM     13  S   LIG    1        3.224   3.392   7.741  0.00  0.00    -0.092 S 
ENDBRANCH   5   9
BRANCH   1  14
ATOM     14  C   LIG    1        1.870  -1.574   3.462  0.00  0.00    +0.180 C 
BRANCH  14  15
ATOM     15  C   LIG    1        0.946  -2.344   4.370  0.00  0.00    +0.227 C 
ATOM     16  O   LIG    1        0.971  -2.149   5.567  0.00  0.00    -0.274 OA
ATOM     17  N   LIG    1        0.091  -3.248   3.853  0.00  0.00    -0.311 N 
ATOM     18  H   LIG    1        0.071  -3.404   2.896  0.00  0.00    +0.149 HD
BRANCH  17  19
ATOM     19  C   LIG    1       -0.807  -3.997   4.736  0.00  0.00    +0.076 C 
ATOM     20  C   LIG    1       -0.075  -5.221   5.288  0.00  0.00    +0.022 C 
ATOM     21  C   LIG    1       -1.014  -6.003   6.210  0.00  0.00    +0.002 C 
ATOM     22  C   LIG    1       -2.243  -6.456   5.421  0.00  0.00    +0.000 C 
ATOM     23  C   LIG    1       -2.975  -5.232   4.868  0.00  0.00    +0.005 C 
ATOM     24  C   LIG    1       -2.037  -4.450   3.946  0.00  0.00    +0.006 C 
ATOM     25  C   LIG    1       -2.768  -3.225   3.394  0.00  0.00    +0.009 C 
ENDBRANCH  17  19
ENDBRANCH  14  15
ENDBRANCH   1  14
TORSDOF 4
