REMARK  Name = ZINC000095993420
REMARK                            x       y       z     vdW  Elec       q    Type
REMARK                         _______ _______ _______ _____ _____    ______ ____
ROOT
ATOM      1  C   LIG    1       -0.276   1.381   0.036  0.00  0.00    +0.009 C 
ATOM      2  C   LIG    1       -0.089  -0.136   0.122  0.00  0.00    +0.009 C 
ATOM      3  C   LIG    1        0.864  -0.469   1.275  0.00  0.00    +0.104 C 
ATOM      4  N   LIG    1        2.194   0.071   0.958  0.00  0.00    -0.296 N 
ATOM      5  C   LIG    1        2.830   0.882   1.826  0.00  0.00    +0.220 C 
ATOM      6  O   LIG    1        2.262   1.262   2.828  0.00  0.00    -0.275 OA
ATOM      7  C   LIG    1        2.817  -0.291  -0.322  0.00  0.00    +0.108 C 
ATOM      8  C   LIG    1        1.842   0.040  -1.456  0.00  0.00    +0.019 C 
ATOM      9  C   LIG    1        0.503  -0.653  -1.191  0.00  0.00    +0.007 C 
ENDROOT
BRANCH   3  10
ATOM     10  C   LIG    1        0.349   0.163   2.570  0.00  0.00    +0.178 C 
BRANCH  10  11
ATOM     11  O   LIG    1        1.135  -0.299   3.670  0.00  0.00    -0.393 OA
ATOM     12  H   LIG    1        0.864   0.061   4.526  0.00  0.00    +0.209 HD
ENDBRANCH  10  11
ENDBRANCH   3  10
BRANCH   5  13
ATOM     13  C   LIG    1        4.246   1.318   1.552  0.00  0.00    +0.131 C 
BRANCH  13  14
ATOM     14  C   LIG    1        4.722   2.214   2.666  0.00  0.00    -0.034 A 
ATOM     15  C   LIG    1        5.348   1.668   3.771  0.00  0.00    +0.053 A 
ATOM     16  C   LIG    1        5.792   2.490   4.796  0.00  0.00    +0.164 A 
ATOM     17  O   LIG    1        6.409   1.938   5.876  0.00  0.00    -0.485 OA
ATOM     18  C   LIG    1        7.170   2.823   6.705  0.00  0.00    +0.270 C 
ATOM     19  C   LIG    1        6.328   4.079   6.966  0.00  0.00    +0.270 C 
ATOM     20  O   LIG    1        6.029   4.689   5.706  0.00  0.00    -0.483 OA
ATOM     21  C   LIG    1        5.598   3.864   4.713  0.00  0.00    +0.180 A 
ATOM     22  C   LIG    1        4.962   4.405   3.605  0.00  0.00    +0.086 A 
ATOM     23 CL   LIG    1        4.713   6.120   3.499  0.00  0.00    -0.080 Cl
ATOM     24  C   LIG    1        4.525   3.580   2.585  0.00  0.00    +0.028 A 
ENDBRANCH  13  14
ENDBRANCH   5  13
TORSDOF 4
