REMARK  Name = ZINC000058183681
REMARK                            x       y       z     vdW  Elec       q    Type
REMARK                         _______ _______ _______ _____ _____    ______ ____
ROOT
ATOM      1  C   LIG    1       -1.201  -0.638   0.010  0.00  0.00    +0.162 A 
ATOM      2  C   LIG    1       -2.374   0.099   0.019  0.00  0.00    +0.053 A 
ATOM      3  C   LIG    1       -3.596  -0.547   0.027  0.00  0.00    -0.043 A 
ATOM      4  C   LIG    1       -3.652  -1.928   0.025  0.00  0.00    +0.007 A 
ATOM      5  C   LIG    1       -2.485  -2.670   0.016  0.00  0.00    +0.050 A 
ATOM      6  C   LIG    1       -1.257  -2.029   0.003  0.00  0.00    +0.162 A 
ENDROOT
BRANCH   1   7
ATOM      7  O   LIG    1        0.002  -0.004   0.002  0.00  0.00    -0.491 OA
ATOM      8  C   LIG    1       -0.017   1.425   0.010  0.00  0.00    +0.277 C 
ENDBRANCH   1   7
BRANCH   3   9
ATOM      9  C   LIG    1       -4.871   0.257   0.037  0.00  0.00    +0.044 C 
BRANCH   9  10
ATOM     10  C   LIG    1       -5.313   0.531  -1.402  0.00  0.00    +0.101 C 
BRANCH  10  11
ATOM     11  C   LIG    1       -6.588   1.334  -1.391  0.00  0.00    +0.220 C 
ATOM     12  O   LIG    1       -7.094   1.656  -0.337  0.00  0.00    -0.275 OA
ATOM     13  N   LIG    1       -7.166   1.695  -2.554  0.00  0.00    -0.253 N 
ATOM     14  H   LIG    1       -6.762   1.438  -3.397  0.00  0.00    +0.158 HD
BRANCH  13  15
ATOM     15  C   LIG    1       -8.350   2.441  -2.545  0.00  0.00    +0.240 A 
ATOM     16  N   LIG    1       -8.985   2.851  -1.473  0.00  0.00    -0.136 NA
ATOM     17  N   LIG    1      -10.114   3.558  -1.918  0.00  0.00    -0.264 N 
ATOM     18  H   LIG    1      -10.786   3.987  -1.364  0.00  0.00    +0.190 HD
ATOM     19  C   LIG    1      -10.080   3.525  -3.260  0.00  0.00    +0.217 A 
ATOM     20  N   LIG    1       -9.015   2.857  -3.626  0.00  0.00    -0.202 NA
ENDBRANCH  13  15
ENDBRANCH  10  11
ENDBRANCH   9  10
ENDBRANCH   3   9
BRANCH   6  21
ATOM     21  O   LIG    1       -0.108  -2.757  -0.006  0.00  0.00    -0.479 OA
BRANCH  21  22
ATOM     22  C   LIG    1       -0.242  -4.179  -0.001  0.00  0.00    +0.342 C 
BRANCH  22  23
ATOM     23  C   LIG    1        1.147  -4.822  -0.012  0.00  0.00    +0.424 C 
ATOM     24  F   LIG    1        1.857  -4.417   1.123  0.00  0.00    -0.167 F 
ATOM     25  F   LIG    1        1.016  -6.215  -0.007  0.00  0.00    -0.167 F 
ATOM     26  F   LIG    1        1.836  -4.423  -1.162  0.00  0.00    -0.167 F 
ENDBRANCH  22  23
ENDBRANCH  21  22
ENDBRANCH   6  21
TORSDOF 8
