REMARK  Name = ZINC000012972387
REMARK                            x       y       z     vdW  Elec       q    Type
REMARK                         _______ _______ _______ _____ _____    ______ ____
ROOT
ATOM      1  S   LIG    1        1.995  -2.345   3.426  0.00  0.00    +0.060 S 
ATOM      2  O   LIG    1        0.939  -1.615   4.036  0.00  0.00    -0.153 OA
ATOM      3  O   LIG    1        2.598  -3.484   4.023  0.00  0.00    -0.153 OA
ENDROOT
BRANCH   1   4
ATOM      4  C   LIG    1        1.396  -2.865   1.853  0.00  0.00    +0.126 A 
ATOM      5  C   LIG    1        0.118  -2.620   1.412  0.00  0.00    +0.037 A 
ATOM      6  C   LIG    1       -0.161  -3.089   0.190  0.00  0.00    +0.048 A 
ATOM      7  S   LIG    1        1.194  -3.873  -0.487  0.00  0.00    -0.088 S 
ATOM      8  C   LIG    1        2.157  -3.554   0.949  0.00  0.00    +0.122 A 
BRANCH   8   9
ATOM      9  C   LIG    1        3.551  -3.955   1.143  0.00  0.00    +0.348 C 
ATOM     10  O   LIG    1        4.158  -3.587   2.131  0.00  0.00    -0.244 OA
BRANCH   9  11
ATOM     11  O   LIG    1        4.164  -4.732   0.226  0.00  0.00    -0.464 OA
ATOM     12  C   LIG    1        5.547  -5.091   0.484  0.00  0.00    +0.280 C 
ENDBRANCH   9  11
ENDBRANCH   8   9
ENDBRANCH   1   4
BRANCH   1  13
ATOM     13  N   LIG    1        3.215  -1.260   3.151  0.00  0.00    -0.182 NA
ATOM     14  H   LIG    1        4.125  -1.478   3.408  0.00  0.00    +0.149 HD
BRANCH  13  15
ATOM     15  C   LIG    1        2.921   0.030   2.520  0.00  0.00    +0.110 C 
ATOM     16  C   LIG    1        2.806   1.097   3.577  0.00  0.00    +0.012 A 
ATOM     17  C   LIG    1        2.139   1.032   4.813  0.00  0.00    +0.046 A 
ATOM     18  C   LIG    1        2.317   2.227   5.411  0.00  0.00    +0.195 A 
ATOM     19  O   LIG    1        3.055   3.005   4.599  0.00  0.00    -0.467 OA
ATOM     20  C   LIG    1        3.355   2.326   3.485  0.00  0.00    +0.110 A 
ATOM     21  C   LIG    1        4.160   2.803   2.300  0.00  0.00    +0.075 C 
ATOM     22  C   LIG    1        3.886   1.864   1.119  0.00  0.00    +0.010 C 
ATOM     23  C   LIG    1        4.062   0.411   1.568  0.00  0.00    +0.025 C 
ENDBRANCH  13  15
ENDBRANCH   1  13
TORSDOF 5
