REMARK  Name = ZINC000005607236
REMARK                            x       y       z     vdW  Elec       q    Type
REMARK                         _______ _______ _______ _____ _____    ______ ____
ROOT
ATOM      1  C   LIG    1       -1.708  -0.099   2.132  0.00  0.00    +0.258 C 
ATOM      2  O   LIG    1       -2.067  -0.695   3.126  0.00  0.00    -0.271 OA
ATOM      3  N   LIG    1       -2.575   0.109   1.122  0.00  0.00    -0.282 N 
ATOM      4  H   LIG    1       -2.270   0.517   0.297  0.00  0.00    +0.155 HD
ENDROOT
BRANCH   3   5
ATOM      5  C   LIG    1       -3.916  -0.265   1.263  0.00  0.00    +0.034 A 
ATOM      6  C   LIG    1       -4.532  -0.192   2.505  0.00  0.00    +0.025 A 
ATOM      7  C   LIG    1       -5.858  -0.556   2.640  0.00  0.00    +0.030 A 
ATOM      8  C   LIG    1       -6.568  -1.003   1.541  0.00  0.00    +0.106 A 
ATOM      9  C   LIG    1       -5.956  -1.083   0.303  0.00  0.00    +0.030 A 
ATOM     10  C   LIG    1       -4.633  -0.715   0.161  0.00  0.00    +0.025 A 
BRANCH   8  11
ATOM     11  S   LIG    1       -8.257  -1.473   1.718  0.00  0.00    +0.060 S 
ATOM     12  O   LIG    1       -8.744  -0.794   2.867  0.00  0.00    -0.153 OA
ATOM     13  O   LIG    1       -8.847  -1.345   0.431  0.00  0.00    -0.153 OA
BRANCH  11  14
ATOM     14  N   LIG    1       -8.281  -3.088   2.084  0.00  0.00    -0.183 NA
ATOM     15  C   LIG    1       -8.239  -3.523   3.482  0.00  0.00    +0.131 C 
ATOM     16  C   LIG    1       -8.343  -4.082   1.009  0.00  0.00    +0.131 C 
ENDBRANCH  11  14
ENDBRANCH   8  11
ENDBRANCH   3   5
BRANCH   1  17
ATOM     17  C   LIG    1       -0.293   0.409   2.028  0.00  0.00    +0.256 C 
ATOM     18  C   LIG    1        0.429  -0.323   0.894  0.00  0.00    +0.062 C 
BRANCH  17  19
ATOM     19  O   LIG    1        0.391   0.171   3.260  0.00  0.00    -0.480 OA
BRANCH  19  20
ATOM     20  C   LIG    1        1.447   0.977   3.544  0.00  0.00    +0.122 A 
ATOM     21  C   LIG    1        2.089   0.874   4.770  0.00  0.00    +0.045 A 
ATOM     22  C   LIG    1        3.163   1.694   5.057  0.00  0.00    +0.004 A 
ATOM     23  C   LIG    1        3.599   2.617   4.124  0.00  0.00    +0.000 A 
ATOM     24  C   LIG    1        2.961   2.721   2.902  0.00  0.00    +0.004 A 
ATOM     25  C   LIG    1        1.890   1.899   2.607  0.00  0.00    +0.045 A 
ENDBRANCH  19  20
ENDBRANCH  17  19
ENDBRANCH   1  17
TORSDOF 6
