REMARK  Name = ZINC000084688979
REMARK                            x       y       z     vdW  Elec       q    Type
REMARK                         _______ _______ _______ _____ _____    ______ ____
ROOT
ATOM      1  N   LIG    1       -2.111  -5.429   0.458  0.00  0.00    -0.285 NA
ENDROOT
BRANCH   1   2
ATOM      2  C   LIG    1       -2.759  -5.027   1.713  0.00  0.00    +0.058 C 
ATOM      3  C   LIG    1       -2.993  -3.532   1.940  0.00  0.00    +0.020 C 
ATOM      4  C   LIG    1       -4.174  -4.452   1.625  0.00  0.00    +0.020 C 
ENDBRANCH   1   2
BRANCH   1   5
ATOM      5  C   LIG    1       -0.672  -5.646   0.654  0.00  0.00    +0.159 C 
BRANCH   5   6
ATOM      6  C   LIG    1       -0.009  -4.337   0.996  0.00  0.00    +0.119 A 
ATOM      7  C   LIG    1        0.164  -3.843   2.235  0.00  0.00    +0.046 A 
ATOM      8  C   LIG    1        0.825  -2.602   2.093  0.00  0.00    +0.045 A 
ATOM      9  C   LIG    1        1.017  -2.411   0.775  0.00  0.00    +0.109 A 
ATOM     10  O   LIG    1        0.505  -3.463   0.115  0.00  0.00    -0.463 OA
BRANCH   9  11
ATOM     11  C   LIG    1        1.687  -1.217   0.145  0.00  0.00    +0.058 C 
ATOM     12  C   LIG    1        0.862  -0.378  -0.832  0.00  0.00    -0.003 C 
ATOM     13  C   LIG    1        1.108   1.133  -0.849  0.00  0.00    +0.008 C 
ATOM     14  C   LIG    1        1.980  -1.281  -1.356  0.00  0.00    +0.015 C 
ENDBRANCH   9  11
ENDBRANCH   5   6
ENDBRANCH   1   5
BRANCH   1  15
ATOM     15  C   LIG    1       -2.752  -6.625  -0.106  0.00  0.00    +0.161 C 
BRANCH  15  16
ATOM     16  C   LIG    1       -4.101  -6.256  -0.666  0.00  0.00    +0.150 A 
ATOM     17  N   LIG    1       -5.188  -6.429   0.065  0.00  0.00    -0.198 NA
ATOM     18  C   LIG    1       -6.382  -6.103  -0.426  0.00  0.00    +0.217 A 
ATOM     19  N   LIG    1       -6.479  -5.604  -1.654  0.00  0.00    -0.181 NA
ATOM     20  C   LIG    1       -5.384  -5.431  -2.386  0.00  0.00    +0.222 A 
ATOM     21  N   LIG    1       -4.194  -5.754  -1.885  0.00  0.00    -0.198 NA
BRANCH  18  22
ATOM     22  N   LIG    1       -7.516  -6.284   0.338  0.00  0.00    -0.327 N 
ATOM     23  H   LIG    1       -7.445  -6.649   1.234  0.00  0.00    +0.145 HD
ATOM     24  H   LIG    1       -8.386  -6.047  -0.021  0.00  0.00    +0.145 HD
ENDBRANCH  18  22
BRANCH  20  25
ATOM     25  N   LIG    1       -5.480  -4.913  -3.661  0.00  0.00    -0.306 N 
ATOM     26  C   LIG    1       -6.790  -4.552  -4.208  0.00  0.00    +0.132 C 
ATOM     27  C   LIG    1       -4.272  -4.723  -4.467  0.00  0.00    +0.132 C 
ENDBRANCH  20  25
ENDBRANCH  15  16
ENDBRANCH   1  15
TORSDOF 8
