REMARK  Name = ZINC000095993624
REMARK                            x       y       z     vdW  Elec       q    Type
REMARK                         _______ _______ _______ _____ _____    ______ ____
ROOT
ATOM      1  C   LIG    1        2.195  -3.641   2.648  0.00  0.00    +0.080 A 
ATOM      2  S   LIG    1        1.347  -4.232   4.066  0.00  0.00    -0.064 S 
ATOM      3  C   LIG    1        2.788  -4.063   5.059  0.00  0.00    +0.114 A 
ATOM      4  N   LIG    1        3.004  -4.321   6.354  0.00  0.00    -0.225 NA
ATOM      5  C   LIG    1        4.180  -4.112   6.901  0.00  0.00    +0.129 A 
ATOM      6  C   LIG    1        4.368  -4.418   8.364  0.00  0.00    +0.088 C 
ATOM      7  N   LIG    1        5.203  -3.643   6.211  0.00  0.00    -0.217 NA
ATOM      8  C   LIG    1        5.091  -3.357   4.922  0.00  0.00    +0.128 A 
ATOM      9  C   LIG    1        3.839  -3.563   4.277  0.00  0.00    +0.051 A 
ATOM     10  C   LIG    1        3.466  -3.344   2.947  0.00  0.00    -0.019 A 
ATOM     11  C   LIG    1        4.430  -2.808   1.920  0.00  0.00    +0.046 C 
ENDROOT
BRANCH   8  12
ATOM     12  N   LIG    1        6.171  -2.867   4.216  0.00  0.00    -0.343 N 
ATOM     13  H   LIG    1        7.057  -2.884   4.611  0.00  0.00    +0.144 HD
ATOM     14  H   LIG    1        6.044  -2.505   3.325  0.00  0.00    +0.144 HD
ENDBRANCH   8  12
BRANCH   1  15
ATOM     15  C   LIG    1        1.593  -3.487   1.318  0.00  0.00    +0.254 C 
ATOM     16  N   LIG    1        0.267  -3.664   1.155  0.00  0.00    -0.290 N 
ATOM     17  O   LIG    1        2.291  -3.200   0.363  0.00  0.00    -0.269 OA
BRANCH  16  18
ATOM     18  C   LIG    1       -0.591  -3.891   2.320  0.00  0.00    +0.180 C 
BRANCH  18  19
ATOM     19  C   LIG    1       -0.802  -5.394   2.513  0.00  0.00    +0.358 C 
ATOM     20  F   LIG    1        0.435  -6.016   2.716  0.00  0.00    -0.208 F 
ATOM     21  F   LIG    1       -1.411  -5.930   1.374  0.00  0.00    -0.208 F 
ENDBRANCH  18  19
ENDBRANCH  16  18
BRANCH  16  22
ATOM     22  C   LIG    1       -0.317  -3.629  -0.189  0.00  0.00    +0.136 C 
BRANCH  22  23
ATOM     23  C   LIG    1       -0.725  -2.194  -0.530  0.00  0.00    +0.178 C 
BRANCH  23  24
ATOM     24  O   LIG    1        0.441  -1.371  -0.603  0.00  0.00    -0.381 OA
ATOM     25  C   LIG    1        0.169  -0.004  -0.918  0.00  0.00    +0.194 C 
ENDBRANCH  23  24
ENDBRANCH  22  23
ENDBRANCH  16  22
ENDBRANCH   1  15
TORSDOF 7
