REMARK  Name = ZINC000074551438
REMARK                            x       y       z     vdW  Elec       q    Type
REMARK                         _______ _______ _______ _____ _____    ______ ____
ROOT
ATOM      1  N   LIG    1       -0.017  -0.859  -3.589  0.00  0.00    -0.291 N 
ATOM      2  H   LIG    1       -0.011  -1.814  -3.417  0.00  0.00    +0.151 HD
ATOM      3  C   LIG    1       -0.031  -0.403  -4.857  0.00  0.00    +0.301 C 
ATOM      4  O   LIG    1       -0.038   0.794  -5.072  0.00  0.00    -0.253 OA
ATOM      5  N   LIG    1       -0.036  -1.273  -5.886  0.00  0.00    -0.290 N 
ATOM      6  H   LIG    1        0.046  -2.224  -5.717  0.00  0.00    +0.151 HD
ENDROOT
BRANCH   5   7
ATOM      7  C   LIG    1       -0.167  -0.781  -7.260  0.00  0.00    +0.061 C 
ATOM      8  C   LIG    1       -1.376   0.098  -7.584  0.00  0.00    +0.033 C 
ATOM      9  C   LIG    1       -1.314  -1.339  -8.104  0.00  0.00    +0.033 C 
BRANCH   7  10
ATOM     10  C   LIG    1        1.129  -0.469  -7.964  0.00  0.00    -0.021 A 
ATOM     11  C   LIG    1        2.332  -0.832  -7.390  0.00  0.00    +0.044 A 
ATOM     12  C   LIG    1        3.522  -0.550  -8.040  0.00  0.00    +0.124 A 
ATOM     13  F   LIG    1        4.698  -0.909  -7.481  0.00  0.00    -0.205 F 
ATOM     14  C   LIG    1        3.505   0.104  -9.260  0.00  0.00    +0.038 A 
ATOM     15  C   LIG    1        2.300   0.471  -9.830  0.00  0.00    +0.003 A 
ATOM     16  C   LIG    1        1.113   0.184  -9.182  0.00  0.00    +0.006 A 
ENDBRANCH   7  10
ENDBRANCH   5   7
BRANCH   1  17
ATOM     17  C   LIG    1       -0.010   0.086  -2.470  0.00  0.00    +0.201 C 
BRANCH  17  18
ATOM     18  C   LIG    1        0.005  -0.675  -1.169  0.00  0.00    +0.233 C 
ATOM     19  N   LIG    1        0.013  -0.008   0.002  0.00  0.00    -0.295 N 
ATOM     20  C   LIG    1        0.007   1.457   0.011  0.00  0.00    +0.132 C 
ATOM     21  O   LIG    1        0.010  -1.888  -1.176  0.00  0.00    -0.274 OA
BRANCH  19  22
ATOM     22  C   LIG    1        0.028  -0.748   1.266  0.00  0.00    +0.220 C 
BRANCH  22  23
ATOM     23  C   LIG    1       -1.409  -1.012   1.720  0.00  0.00    +0.405 C 
ATOM     24  F   LIG    1       -1.394  -1.718   2.927  0.00  0.00    -0.169 F 
ATOM     25  F   LIG    1       -2.072   0.207   1.901  0.00  0.00    -0.169 F 
ATOM     26  F   LIG    1       -2.074  -1.765   0.747  0.00  0.00    -0.169 F 
ENDBRANCH  22  23
ENDBRANCH  19  22
ENDBRANCH  17  18
ENDBRANCH   1  17
TORSDOF 6
