REMARK  Name = ZINC000069617479
REMARK                            x       y       z     vdW  Elec       q    Type
REMARK                         _______ _______ _______ _____ _____    ______ ____
ROOT
ATOM      1  C   LIG    1       -2.800  -2.030   1.303  0.00  0.00    +0.092 C 
ATOM      2  C   LIG    1       -3.846  -2.074   2.421  0.00  0.00    +0.122 C 
ATOM      3  N   LIG    1       -5.110  -2.577   1.867  0.00  0.00    -0.285 N 
ATOM      4  C   LIG    1       -6.253  -1.880   2.021  0.00  0.00    +0.306 C 
ATOM      5  O   LIG    1       -6.261  -0.867   2.693  0.00  0.00    -0.252 OA
ATOM      6  N   LIG    1       -7.387  -2.306   1.429  0.00  0.00    -0.269 N 
ATOM      7  H   LIG    1       -7.406  -3.164   0.979  0.00  0.00    +0.156 HD
ATOM      8  C   LIG    1       -5.104  -3.855   1.141  0.00  0.00    +0.109 C 
ATOM      9  C   LIG    1       -4.044  -3.790   0.037  0.00  0.00    +0.020 C 
ATOM     10  C   LIG    1       -2.695  -3.411   0.652  0.00  0.00    +0.016 C 
ENDROOT
BRANCH   6  11
ATOM     11  C   LIG    1       -8.538  -1.507   1.465  0.00  0.00    +0.035 A 
ATOM     12  C   LIG    1       -9.791  -2.099   1.522  0.00  0.00    +0.028 A 
ATOM     13  C   LIG    1      -10.932  -1.315   1.563  0.00  0.00    -0.025 A 
ATOM     14  C   LIG    1      -12.277  -1.991   1.620  0.00  0.00    +0.038 C 
ATOM     15  C   LIG    1      -13.338  -1.028   2.152  0.00  0.00    +0.024 C 
ATOM     16  C   LIG    1      -13.272   0.276   1.346  0.00  0.00    +0.105 C 
ATOM     17  N   LIG    1      -11.954   0.883   1.581  0.00  0.00    -0.333 N 
ATOM     18  C   LIG    1      -11.832   2.317   1.854  0.00  0.00    +0.129 C 
ATOM     19  C   LIG    1      -10.816   0.066   1.539  0.00  0.00    +0.033 A 
ATOM     20  C   LIG    1       -9.560   0.660   1.476  0.00  0.00    +0.025 A 
ATOM     21  C   LIG    1       -8.425  -0.124   1.438  0.00  0.00    +0.025 A 
ENDBRANCH   6  11
BRANCH   1  22
ATOM     22  C   LIG    1       -1.462  -1.643   1.880  0.00  0.00    +0.218 C 
ATOM     23  N   LIG    1       -1.316  -0.460   2.508  0.00  0.00    -0.315 N 
ATOM     24  H   LIG    1       -2.071   0.143   2.588  0.00  0.00    +0.149 HD
ATOM     25  O   LIG    1       -0.518  -2.398   1.780  0.00  0.00    -0.275 OA
BRANCH  23  26
ATOM     26  C   LIG    1       -0.016  -0.084   3.069  0.00  0.00    +0.101 C 
ATOM     27  C   LIG    1       -0.121   1.296   3.721  0.00  0.00    +0.024 C 
ENDBRANCH  23  26
ENDBRANCH   1  22
TORSDOF 3
