REMARK  Name = ZINC000069599451
REMARK                            x       y       z     vdW  Elec       q    Type
REMARK                         _______ _______ _______ _____ _____    ______ ____
ROOT
ATOM      1  C   LIG    1       -3.961  -4.735  -0.041  0.00  0.00    +0.024 C 
ATOM      2  C   LIG    1       -3.940  -6.261   0.064  0.00  0.00    +0.008 C 
ATOM      3  C   LIG    1       -5.375  -6.790   0.129  0.00  0.00    +0.019 C 
ATOM      4  C   LIG    1       -6.115  -6.404  -1.156  0.00  0.00    +0.108 C 
ATOM      5  N   LIG    1       -6.015  -4.950  -1.341  0.00  0.00    -0.297 N 
ATOM      6  C   LIG    1       -7.123  -4.203  -1.518  0.00  0.00    +0.250 C 
ATOM      7  O   LIG    1       -7.038  -2.991  -1.565  0.00  0.00    -0.270 OA
ATOM      8  C   LIG    1       -4.686  -4.325  -1.327  0.00  0.00    +0.113 C 
ENDROOT
BRANCH   6   9
ATOM      9  C   LIG    1       -8.439  -4.856  -1.657  0.00  0.00    +0.082 A 
ATOM     10  C   LIG    1       -9.499  -4.486  -0.821  0.00  0.00    +0.174 A 
ATOM     11  C   LIG    1      -10.738  -5.104  -0.965  0.00  0.00    +0.162 A 
ATOM     12  C   LIG    1      -10.912  -6.088  -1.924  0.00  0.00    +0.049 A 
ATOM     13  C   LIG    1       -9.862  -6.458  -2.747  0.00  0.00    +0.005 A 
ATOM     14  C   LIG    1       -8.631  -5.850  -2.620  0.00  0.00    +0.017 A 
BRANCH  10  15
ATOM     15  O   LIG    1       -9.324  -3.521   0.117  0.00  0.00    -0.491 OA
ATOM     16  C   LIG    1       -8.896  -3.946   1.413  0.00  0.00    +0.277 C 
ENDBRANCH  10  15
BRANCH  11  17
ATOM     17  O   LIG    1      -11.774  -4.746  -0.161  0.00  0.00    -0.491 OA
ATOM     18  C   LIG    1      -13.015  -5.426  -0.360  0.00  0.00    +0.277 C 
ENDBRANCH  11  17
ENDBRANCH   6   9
BRANCH   1  19
ATOM     19  C   LIG    1       -2.526  -4.205  -0.072  0.00  0.00    +0.109 C 
BRANCH  19  20
ATOM     20  N   LIG    1       -2.546  -2.740  -0.054  0.00  0.00    -0.315 N 
ATOM     21  H   LIG    1       -3.392  -2.267  -0.027  0.00  0.00    +0.149 HD
ATOM     22  C   LIG    1       -1.388  -2.050  -0.076  0.00  0.00    +0.213 C 
ATOM     23  O   LIG    1       -0.330  -2.643  -0.111  0.00  0.00    -0.276 OA
BRANCH  22  24
ATOM     24  C   LIG    1       -1.408  -0.544  -0.058  0.00  0.00    +0.095 C 
BRANCH  24  25
ATOM     25  C   LIG    1        0.027  -0.014  -0.089  0.00  0.00    +0.006 C 
ATOM     26  C   LIG    1        0.006   1.516  -0.071  0.00  0.00    +0.004 C 
ENDBRANCH  24  25
ENDBRANCH  22  24
ENDBRANCH  19  20
ENDBRANCH   1  19
TORSDOF 7
