REMARK  Name = ZINC000025707249
REMARK                            x       y       z     vdW  Elec       q    Type
REMARK                         _______ _______ _______ _____ _____    ______ ____
ROOT
ATOM      1  C   LIG    1        2.952  -3.809   1.228  0.00  0.00    +0.146 A 
ATOM      2  N   LIG    1        2.464  -3.392   2.374  0.00  0.00    -0.163 NA
ATOM      3  N   LIG    1        2.988  -3.716   3.501  0.00  0.00    -0.226 N 
ATOM      4  C   LIG    1        4.075  -4.506   3.576  0.00  0.00    +0.267 A 
ATOM      5  O   LIG    1        4.549  -4.796   4.662  0.00  0.00    -0.266 OA
ATOM      6  C   LIG    1        4.662  -4.998   2.390  0.00  0.00    +0.074 A 
ATOM      7  C   LIG    1        4.091  -4.650   1.202  0.00  0.00    +0.040 A 
ENDROOT
BRANCH   1   8
ATOM      8  C   LIG    1        2.306  -3.404  -0.040  0.00  0.00    +0.267 C 
ATOM      9  N   LIG    1        1.120  -2.765  -0.017  0.00  0.00    -0.296 N 
ATOM     10  C   LIG    1        0.376  -2.612   1.241  0.00  0.00    +0.108 C 
ATOM     11  C   LIG    1       -1.044  -3.151   1.043  0.00  0.00    +0.022 C 
ATOM     12  C   LIG    1       -1.688  -2.453  -0.158  0.00  0.00    -0.011 C 
ATOM     13  C   LIG    1       -3.119  -2.964  -0.337  0.00  0.00    +0.007 C 
ATOM     14  C   LIG    1       -0.877  -2.754  -1.420  0.00  0.00    +0.022 C 
ATOM     15  C   LIG    1        0.545  -2.210  -1.250  0.00  0.00    +0.108 C 
ATOM     16  O   LIG    1        2.845  -3.648  -1.101  0.00  0.00    -0.268 OA
ENDBRANCH   1   8
BRANCH   3  17
ATOM     17  C   LIG    1        2.386  -3.212   4.737  0.00  0.00    +0.188 C 
BRANCH  17  18
ATOM     18  C   LIG    1        3.026  -1.872   5.107  0.00  0.00    +0.252 C 
BRANCH  18  19
ATOM     19  O   LIG    1        2.708  -0.901   4.108  0.00  0.00    -0.490 OA
BRANCH  19  20
ATOM     20  C   LIG    1        3.204   0.352   4.287  0.00  0.00    +0.121 A 
ATOM     21  C   LIG    1        3.985   0.639   5.397  0.00  0.00    +0.045 A 
ATOM     22  C   LIG    1        4.488   1.913   5.575  0.00  0.00    +0.004 A 
ATOM     23  C   LIG    1        4.213   2.902   4.649  0.00  0.00    +0.000 A 
ATOM     24  C   LIG    1        3.434   2.619   3.542  0.00  0.00    +0.004 A 
ATOM     25  C   LIG    1        2.934   1.345   3.356  0.00  0.00    +0.045 A 
ENDBRANCH  19  20
ENDBRANCH  18  19
ENDBRANCH  17  18
ENDBRANCH   3  17
TORSDOF 5
