REMARK  Name = ZINC000069618145
REMARK                            x       y       z     vdW  Elec       q    Type
REMARK                         _______ _______ _______ _____ _____    ______ ____
ROOT
ATOM      1  C   LIG    1        4.295   6.054   2.955  0.00  0.00    +0.303 C 
ATOM      2  O   LIG    1        3.475   6.170   3.842  0.00  0.00    -0.265 OA
ATOM      3  N   LIG    1        5.610   6.157   3.236  0.00  0.00    -0.278 N 
ATOM      4  H   LIG    1        6.268   5.998   2.541  0.00  0.00    +0.155 HD
ENDROOT
BRANCH   3   5
ATOM      5  C   LIG    1        6.024   6.493   4.527  0.00  0.00    +0.036 A 
ATOM      6  C   LIG    1        5.310   6.035   5.628  0.00  0.00    +0.023 A 
ATOM      7  C   LIG    1        5.720   6.368   6.905  0.00  0.00    +0.004 A 
ATOM      8  C   LIG    1        6.839   7.155   7.092  0.00  0.00    +0.023 A 
ATOM      9  C   LIG    1        7.557   7.617   5.995  0.00  0.00    +0.031 A 
ATOM     10  C   LIG    1        7.152   7.280   4.712  0.00  0.00    +0.046 A 
BRANCH   9  11
ATOM     11  N   LIG    1        8.689   8.413   6.186  0.00  0.00    -0.330 N 
ATOM     12  C   LIG    1        9.230   8.839   7.489  0.00  0.00    +0.105 C 
ATOM     13  C   LIG    1       10.731   9.126   7.218  0.00  0.00    +0.020 C 
ATOM     14  C   LIG    1       10.673   9.757   5.801  0.00  0.00    +0.020 C 
ATOM     15  C   LIG    1        9.533   8.971   5.119  0.00  0.00    +0.105 C 
ENDBRANCH   9  11
ENDBRANCH   3   5
BRANCH   1  16
ATOM     16  C   LIG    1        3.849   5.796   1.553  0.00  0.00    +0.300 C 
ATOM     17  N   LIG    1        2.535   5.693   1.273  0.00  0.00    -0.303 N 
ATOM     18  H   LIG    1        1.879   5.786   1.981  0.00  0.00    +0.149 HD
ATOM     19  O   LIG    1        4.670   5.680   0.667  0.00  0.00    -0.265 OA
BRANCH  17  20
ATOM     20  C   LIG    1        2.097   5.441  -0.102  0.00  0.00    +0.140 C 
BRANCH  20  21
ATOM     21  C   LIG    1        0.592   5.370  -0.145  0.00  0.00    -0.029 A 
ATOM     22  C   LIG    1       -0.045   4.161   0.042  0.00  0.00    +0.024 A 
ATOM     23  C   LIG    1       -1.440   4.096  -0.004  0.00  0.00    +0.052 A 
ATOM     24  C   LIG    1       -2.179   5.259  -0.227  0.00  0.00    +0.019 A 
ATOM     25  C   LIG    1       -1.529   6.463  -0.406  0.00  0.00    +0.002 A 
ATOM     26  C   LIG    1       -0.147   6.519  -0.366  0.00  0.00    +0.005 A 
BRANCH  23  27
ATOM     27  C   LIG    1       -2.108   2.844   0.182  0.00  0.00    +0.099 C 
ATOM     28  N   LIG    1       -2.638   1.850   0.331  0.00  0.00    -0.191 NA
ENDBRANCH  23  27
ENDBRANCH  20  21
ENDBRANCH  17  20
ENDBRANCH   1  16
TORSDOF 6
