REMARK  Name = ZINC000095993963
REMARK                            x       y       z     vdW  Elec       q    Type
REMARK                         _______ _______ _______ _____ _____    ______ ____
ROOT
ATOM      1  C   LIG    1        3.002  -2.014  -0.305  0.00  0.00    +0.146 A 
ATOM      2  C   LIG    1        4.333  -2.116  -0.019  0.00  0.00    +0.049 A 
ATOM      3  C   LIG    1        4.902  -3.340   0.323  0.00  0.00    +0.024 A 
ATOM      4  C   LIG    1        4.147  -4.474   0.373  0.00  0.00    +0.050 A 
ATOM      5 CL   LIG    1        4.878  -5.990   0.797  0.00  0.00    -0.083 Cl
ATOM      6  C   LIG    1        2.774  -4.409   0.080  0.00  0.00    +0.022 A 
ATOM      7  C   LIG    1        1.961  -5.558   0.121  0.00  0.00    +0.013 A 
ATOM      8  C   LIG    1        0.635  -5.420  -0.177  0.00  0.00    +0.020 A 
ATOM      9  C   LIG    1        0.124  -4.167  -0.508  0.00  0.00    +0.111 A 
ATOM     10  N   LIG    1        0.884  -3.100  -0.545  0.00  0.00    -0.251 NA
ATOM     11  C   LIG    1        2.189  -3.166  -0.264  0.00  0.00    +0.114 A 
ENDROOT
BRANCH   1  12
ATOM     12  O   LIG    1        2.464  -0.810  -0.634  0.00  0.00    -0.488 OA
BRANCH  12  13
ATOM     13  C   LIG    1        3.350   0.310  -0.660  0.00  0.00    +0.246 C 
BRANCH  13  14
ATOM     14  C   LIG    1        2.570   1.568  -1.047  0.00  0.00    +0.150 C 
BRANCH  14  15
ATOM     15  N   LIG    1        1.589   1.875  -0.003  0.00  0.00    -0.178 NA
ATOM     16  C   LIG    1        1.837   2.641   1.227  0.00  0.00    +0.111 C 
ATOM     17  C   LIG    1        0.891   2.168   2.347  0.00  0.00    +0.041 C 
ATOM     18  C   LIG    1       -0.500   2.066   1.656  0.00  0.00    +0.186 C 
ATOM     19  S   LIG    1       -0.017   1.417   0.010  0.00  0.00    +0.032 S 
ATOM     20  O   LIG    1        0.002  -0.004   0.002  0.00  0.00    -0.158 OA
ATOM     21  O   LIG    1       -0.624   2.161  -1.038  0.00  0.00    -0.158 OA
ENDBRANCH  14  15
ENDBRANCH  13  14
ENDBRANCH  12  13
ENDBRANCH   1  12
TORSDOF 4
