REMARK  Name = ZINC000082092348
REMARK                            x       y       z     vdW  Elec       q    Type
REMARK                         _______ _______ _______ _____ _____    ______ ____
ROOT
ATOM      1  C   LIG    1       -0.029   1.460   0.011  0.00  0.00    +0.133 C 
ATOM      2  N   LIG    1        0.003  -0.004   0.002  0.00  0.00    -0.291 N 
ATOM      3  C   LIG    1       -0.102  -0.673  -1.163  0.00  0.00    +0.250 C 
ATOM      4  O   LIG    1       -0.177  -1.888  -1.163  0.00  0.00    -0.270 OA
ENDROOT
BRANCH   3   5
ATOM      5  C   LIG    1       -0.124   0.062  -2.431  0.00  0.00    +0.082 A 
ATOM      6  C   LIG    1        0.583   1.240  -2.728  0.00  0.00    +0.148 A 
ATOM      7  N   LIG    1        0.312   1.594  -3.958  0.00  0.00    -0.174 NA
ATOM      8  N   LIG    1       -0.587   0.680  -4.522  0.00  0.00    -0.239 N 
ATOM      9  C   LIG    1       -1.167   0.614  -5.753  0.00  0.00    +0.113 A 
ATOM     10  C   LIG    1       -2.019  -0.390  -6.061  0.00  0.00    +0.020 A 
ATOM     11  C   LIG    1       -2.318  -1.380  -5.115  0.00  0.00    +0.004 A 
ATOM     12  C   LIG    1       -1.741  -1.322  -3.880  0.00  0.00    +0.028 A 
ATOM     13  C   LIG    1       -0.862  -0.273  -3.583  0.00  0.00    +0.079 A 
ENDBRANCH   3   5
BRANCH   2  14
ATOM     14  C   LIG    1        0.147  -0.742   1.260  0.00  0.00    +0.206 C 
BRANCH  14  15
ATOM     15  C   LIG    1       -1.216  -1.026   1.835  0.00  0.00    +0.245 A 
ATOM     16  O   LIG    1       -1.899  -0.247   2.679  0.00  0.00    -0.336 OA
ATOM     17  N   LIG    1       -2.965  -0.760   2.948  0.00  0.00    -0.056 NA
ATOM     18  C   LIG    1       -3.080  -1.906   2.329  0.00  0.00    +0.204 A 
ATOM     19  N   LIG    1       -1.952  -2.085   1.606  0.00  0.00    -0.190 NA
BRANCH  18  20
ATOM     20  C   LIG    1       -4.234  -2.836   2.405  0.00  0.00    +0.041 A 
ATOM     21  C   LIG    1       -5.347  -2.525   3.191  0.00  0.00    +0.014 A 
ATOM     22  C   LIG    1       -6.398  -3.425   3.229  0.00  0.00    +0.020 A 
ATOM     23  C   LIG    1       -6.314  -4.594   2.494  0.00  0.00    +0.111 A 
ATOM     24  N   LIG    1       -5.249  -4.861   1.762  0.00  0.00    -0.263 NA
ATOM     25  C   LIG    1       -4.228  -4.032   1.690  0.00  0.00    +0.122 A 
ENDBRANCH  18  20
ENDBRANCH  14  15
ENDBRANCH   2  14
TORSDOF 4
