REMARK  Name = ZINC000095987589
REMARK                            x       y       z     vdW  Elec       q    Type
REMARK                         _______ _______ _______ _____ _____    ______ ____
ROOT
ATOM      1  N   LIG    1       -1.184  -1.222  -0.026  0.00  0.00    -0.293 N 
ATOM      2  H   LIG    1       -1.611  -1.502   0.798  0.00  0.00    +0.151 HD
ATOM      3  C   LIG    1       -1.912  -1.100  -1.154  0.00  0.00    +0.303 C 
ATOM      4  N   LIG    1       -3.209  -1.465  -1.162  0.00  0.00    -0.283 N 
ATOM      5  C   LIG    1       -3.878  -1.879   0.079  0.00  0.00    +0.109 C 
ATOM      6  C   LIG    1       -4.521  -3.252  -0.142  0.00  0.00    +0.019 C 
ATOM      7  C   LIG    1       -5.443  -3.189  -1.361  0.00  0.00    +0.003 C 
ATOM      8  C   LIG    1       -4.624  -2.834  -2.604  0.00  0.00    +0.023 C 
ATOM      9  C   LIG    1       -3.983  -1.451  -2.411  0.00  0.00    +0.080 C 
ATOM     10  O   LIG    1       -1.398  -0.661  -2.165  0.00  0.00    -0.253 OA
ENDROOT
BRANCH   1  11
ATOM     11  C   LIG    1        0.252  -0.931  -0.046  0.00  0.00    +0.102 C 
ATOM     12  C   LIG    1        0.470   0.571   0.150  0.00  0.00    +0.033 C 
BRANCH  11  13
ATOM     13  C   LIG    1        0.932  -1.687   1.066  0.00  0.00    -0.027 A 
ATOM     14  C   LIG    1        0.320  -1.798   2.301  0.00  0.00    +0.007 A 
ATOM     15  C   LIG    1        0.942  -2.490   3.322  0.00  0.00    +0.028 A 
ATOM     16  C   LIG    1        2.182  -3.074   3.107  0.00  0.00    +0.067 A 
ATOM     17  C   LIG    1        2.795  -2.961   1.867  0.00  0.00    +0.028 A 
ATOM     18  C   LIG    1        2.166  -2.272   0.848  0.00  0.00    +0.007 A 
BRANCH  16  19
ATOM     19  N   LIG    1        2.816  -3.778   4.142  0.00  0.00    -0.220 N 
ATOM     20  N   LIG    1        2.354  -3.952   5.331  0.00  0.00    -0.061 NA
ATOM     21  N   LIG    1        3.180  -4.644   6.032  0.00  0.00    -0.138 NA
ATOM     22  C   LIG    1        4.249  -4.939   5.284  0.00  0.00    +0.156 A 
ATOM     23  C   LIG    1        4.029  -4.390   4.066  0.00  0.00    +0.136 A 
ENDBRANCH  16  19
ENDBRANCH  11  13
ENDBRANCH   1  11
BRANCH   9  24
ATOM     24  C   LIG    1       -3.055  -1.146  -3.588  0.00  0.00    +0.050 C 
BRANCH  24  25
ATOM     25  C   LIG    1       -3.854  -1.189  -4.892  0.00  0.00    +0.157 C 
BRANCH  25  26
ATOM     26  O   LIG    1       -3.015  -0.789  -5.978  0.00  0.00    -0.395 OA
ATOM     27  H   LIG    1       -3.457  -0.792  -6.838  0.00  0.00    +0.209 HD
ENDBRANCH  25  26
ENDBRANCH  24  25
ENDBRANCH   9  24
TORSDOF 6
