REMARK  Name = ZINC000000235734
REMARK                            x       y       z     vdW  Elec       q    Type
REMARK                         _______ _______ _______ _____ _____    ______ ____
ROOT
ATOM      1  C   LIG    1       -1.266  -2.054  -0.152  0.00  0.00    +0.065 C 
ATOM      2  C   LIG    1       -2.439  -2.658   0.108  0.00  0.00    +0.016 C 
ATOM      3  N   LIG    1       -2.507  -4.015   0.269  0.00  0.00    -0.321 N 
ATOM      4  C   LIG    1       -1.375  -4.738   0.529  0.00  0.00    +0.016 C 
ATOM      5  C   LIG    1       -1.493  -6.130   1.093  0.00  0.00    +0.061 C 
ATOM      6  C   LIG    1       -0.158  -4.221   0.287  0.00  0.00    +0.065 C 
ATOM      7  H   LIG    1       -3.363  -4.467   0.199  0.00  0.00    +0.152 HD
ATOM      8  C   LIG    1       -3.693  -1.831   0.222  0.00  0.00    +0.061 C 
ATOM      9  C   LIG    1        0.007  -2.841  -0.288  0.00  0.00    +0.096 C 
ENDROOT
BRANCH   9  10
ATOM     10  C   LIG    1        0.379  -2.952  -1.744  0.00  0.00    -0.035 A 
ATOM     11  C   LIG    1        1.572  -2.418  -2.195  0.00  0.00    +0.007 A 
ATOM     12  C   LIG    1        1.915  -2.523  -3.530  0.00  0.00    +0.033 A 
ATOM     13  C   LIG    1        1.062  -3.155  -4.416  0.00  0.00    +0.126 A 
ATOM     14  C   LIG    1       -0.133  -3.684  -3.966  0.00  0.00    +0.033 A 
ATOM     15  C   LIG    1       -0.475  -3.582  -2.630  0.00  0.00    +0.007 A 
BRANCH  13  16
ATOM     16  N   LIG    1        1.428  -3.264  -5.846  0.00  0.00    +0.056 N 
ATOM     17  O   LIG    1        2.481  -2.798  -6.242  0.00  0.00    -0.126 OA
ATOM     18  O   LIG    1        0.676  -3.820  -6.626  0.00  0.00    -0.126 OA
ENDBRANCH  13  16
ENDBRANCH   9  10
BRANCH   6  19
ATOM     19  C   LIG    1        0.991  -4.993   0.575  0.00  0.00    +0.337 C 
ATOM     20  O   LIG    1        0.872  -6.112   1.036  0.00  0.00    -0.245 OA
BRANCH  19  21
ATOM     21  O   LIG    1        2.220  -4.488   0.338  0.00  0.00    -0.465 OA
ATOM     22  C   LIG    1        3.337  -5.323   0.652  0.00  0.00    +0.280 C 
ENDBRANCH  19  21
ENDBRANCH   6  19
BRANCH   1  23
ATOM     23  C   LIG    1       -1.231  -0.649  -0.305  0.00  0.00    +0.337 C 
ATOM     24  O   LIG    1       -0.767   0.048   0.578  0.00  0.00    -0.245 OA
BRANCH  23  25
ATOM     25  O   LIG    1       -1.712  -0.081  -1.430  0.00  0.00    -0.465 OA
ATOM     26  C   LIG    1       -1.645   1.344  -1.518  0.00  0.00    +0.280 C 
ENDBRANCH  23  25
ENDBRANCH   1  23
TORSDOF 6
