REMARK  Name = ZINC000095994050
REMARK                            x       y       z     vdW  Elec       q    Type
REMARK                         _______ _______ _______ _____ _____    ______ ____
ROOT
ATOM      1  S   LIG    1        2.015   5.371  -1.036  0.00  0.00    +0.043 S 
ATOM      2  O   LIG    1        1.791   6.649  -0.456  0.00  0.00    -0.155 OA
ATOM      3  O   LIG    1        3.058   4.527  -0.568  0.00  0.00    -0.155 OA
ENDROOT
BRANCH   1   4
ATOM      4  N   LIG    1        2.430   5.701  -2.604  0.00  0.00    -0.218 N 
ATOM      5  H   LIG    1        3.233   5.313  -2.986  0.00  0.00    +0.173 HD
BRANCH   4   6
ATOM      6  C   LIG    1        1.625   6.537  -3.377  0.00  0.00    +0.086 A 
ATOM      7  C   LIG    1        0.969   7.625  -2.806  0.00  0.00    +0.047 A 
ATOM      8  C   LIG    1        0.182   8.429  -3.605  0.00  0.00    +0.113 A 
ATOM      9  N   LIG    1        0.046   8.177  -4.893  0.00  0.00    -0.260 NA
ATOM     10  C   LIG    1        0.650   7.156  -5.473  0.00  0.00    +0.151 A 
ATOM     11  C   LIG    1        1.460   6.308  -4.745  0.00  0.00    +0.164 A 
ATOM     12  F   LIG    1        2.075   5.265  -5.345  0.00  0.00    -0.202 F 
ENDBRANCH   4   6
ENDBRANCH   1   4
BRANCH   1  13
ATOM     13  C   LIG    1        0.458   4.448  -1.164  0.00  0.00    +0.193 C 
BRANCH  13  14
ATOM     14  C   LIG    1       -0.034   4.081   0.237  0.00  0.00    +0.062 C 
BRANCH  14  15
ATOM     15  C   LIG    1       -1.327   3.314   0.131  0.00  0.00    -0.016 A 
ATOM     16  C   LIG    1       -2.533   3.967   0.302  0.00  0.00    +0.006 A 
ATOM     17  C   LIG    1       -3.719   3.263   0.205  0.00  0.00    +0.000 A 
ATOM     18  C   LIG    1       -3.699   1.909  -0.069  0.00  0.00    +0.002 A 
ATOM     19  C   LIG    1       -2.493   1.257  -0.245  0.00  0.00    +0.033 A 
ATOM     20  C   LIG    1       -1.307   1.960  -0.148  0.00  0.00    +0.129 A 
BRANCH  20  21
ATOM     21  N   LIG    1       -0.015   1.262  -0.336  0.00  0.00    +0.057 N 
ATOM     22  O   LIG    1        1.023   1.899  -0.362  0.00  0.00    -0.126 OA
ATOM     23  O   LIG    1        0.010   0.052  -0.470  0.00  0.00    -0.126 OA
ENDBRANCH  20  21
ENDBRANCH  14  15
ENDBRANCH  13  14
ENDBRANCH   1  13
TORSDOF 6
