REMARK  Name = ZINC000001229138
REMARK                            x       y       z     vdW  Elec       q    Type
REMARK                         _______ _______ _______ _____ _____    ______ ____
ROOT
ATOM      1  C   LIG    1       -0.806   1.849  -1.505  0.00  0.00    +0.098 A 
ATOM      2  C   LIG    1       -1.695   0.971  -2.097  0.00  0.00    +0.029 A 
ATOM      3  C   LIG    1       -2.314   1.310  -3.285  0.00  0.00    +0.029 A 
ATOM      4  C   LIG    1       -2.044   2.527  -3.882  0.00  0.00    +0.098 A 
ATOM      5  C   LIG    1       -1.157   3.406  -3.290  0.00  0.00    +0.029 A 
ATOM      6  C   LIG    1       -0.541   3.069  -2.099  0.00  0.00    +0.029 A 
ENDROOT
BRANCH   1   7
ATOM      7  S   LIG    1       -0.017   1.417   0.010  0.00  0.00    +0.091 S 
ATOM      8  O   LIG    1        0.002  -0.004   0.002  0.00  0.00    -0.161 OA
ATOM      9  O   LIG    1        1.190   2.166   0.002  0.00  0.00    -0.161 OA
BRANCH   7  10
ATOM     10  C   LIG    1       -1.139   2.031   1.296  0.00  0.00    +0.526 C 
ATOM     11  F   LIG    1       -0.608   1.740   2.557  0.00  0.00    -0.150 F 
ATOM     12  F   LIG    1       -1.289   3.416   1.161  0.00  0.00    -0.150 F 
ATOM     13  F   LIG    1       -2.387   1.412   1.161  0.00  0.00    -0.150 F 
ENDBRANCH   7  10
ENDBRANCH   1   7
BRANCH   4  14
ATOM     14  S   LIG    1       -2.833   2.959  -5.398  0.00  0.00    +0.091 S 
ATOM     15  O   LIG    1       -3.132   1.710  -6.005  0.00  0.00    -0.161 OA
ATOM     16  O   LIG    1       -1.936   3.876  -6.010  0.00  0.00    -0.161 OA
BRANCH  14  17
ATOM     17  C   LIG    1       -4.357   3.802  -4.891  0.00  0.00    +0.526 C 
ATOM     18  F   LIG    1       -5.139   2.931  -4.125  0.00  0.00    -0.150 F 
ATOM     19  F   LIG    1       -4.035   4.931  -4.129  0.00  0.00    -0.150 F 
ATOM     20  F   LIG    1       -5.073   4.195  -6.027  0.00  0.00    -0.150 F 
ENDBRANCH  14  17
ENDBRANCH   4  14
TORSDOF 4
