REMARK  Name = ZINC000025704979
REMARK                            x       y       z     vdW  Elec       q    Type
REMARK                         _______ _______ _______ _____ _____    ______ ____
ROOT
ATOM      1  N   LIG    1        0.583  -2.038   5.804  0.00  0.00    -0.335 N 
ATOM      2  H   LIG    1        0.934  -2.902   5.538  0.00  0.00    +0.147 HD
ENDROOT
BRANCH   1   3
ATOM      3  C   LIG    1        0.185  -1.117   4.832  0.00  0.00    +0.028 A 
ATOM      4  C   LIG    1       -0.319   0.121   5.213  0.00  0.00    +0.023 A 
ATOM      5  C   LIG    1       -0.714   1.036   4.255  0.00  0.00    +0.002 A 
ATOM      6  C   LIG    1       -0.611   0.725   2.914  0.00  0.00    +0.012 A 
ATOM      7  C   LIG    1       -0.106  -0.515   2.522  0.00  0.00    +0.022 A 
ATOM      8  C   LIG    1        0.287  -1.440   3.487  0.00  0.00    +0.034 A 
BRANCH   7   9
ATOM      9  C   LIG    1        0.006  -0.850   1.084  0.00  0.00    +0.182 A 
ATOM     10  N   LIG    1        0.765  -1.834   0.542  0.00  0.00    -0.228 N 
ATOM     11  C   LIG    1        1.631  -2.781   1.249  0.00  0.00    +0.176 C 
ATOM     12  N   LIG    1        0.537  -1.756  -0.843  0.00  0.00    -0.044 NA
ATOM     13  N   LIG    1       -0.289  -0.784  -1.031  0.00  0.00    -0.023 NA
ATOM     14  N   LIG    1       -0.606  -0.243   0.089  0.00  0.00    -0.108 NA
ENDBRANCH   7   9
ENDBRANCH   1   3
BRANCH   1  15
ATOM     15  C   LIG    1        0.469  -1.700   7.225  0.00  0.00    +0.198 C 
BRANCH  15  16
ATOM     16  C   LIG    1        0.961  -2.855   8.058  0.00  0.00    +0.234 C 
ATOM     17  N   LIG    1        0.950  -2.769   9.403  0.00  0.00    -0.282 N 
ATOM     18  H   LIG    1        0.553  -1.997   9.836  0.00  0.00    +0.155 HD
ATOM     19  O   LIG    1        1.366  -3.863   7.518  0.00  0.00    -0.274 OA
BRANCH  17  20
ATOM     20  C   LIG    1        1.511  -3.794  10.174  0.00  0.00    +0.072 A 
ATOM     21  C   LIG    1        1.089  -3.990  11.485  0.00  0.00    +0.145 A 
ATOM     22  C   LIG    1        1.641  -5.006  12.243  0.00  0.00    +0.043 A 
ATOM     23  C   LIG    1        2.619  -5.821  11.703  0.00  0.00    +0.041 A 
ATOM     24  C   LIG    1        3.045  -5.625  10.400  0.00  0.00    +0.125 A 
ATOM     25  F   LIG    1        4.000  -6.423   9.875  0.00  0.00    -0.205 F 
ATOM     26  F   LIG    1        0.134  -3.194  12.014  0.00  0.00    -0.204 F 
ATOM     27  C   LIG    1        2.492  -4.613   9.635  0.00  0.00    +0.064 A 
ENDBRANCH  17  20
ENDBRANCH  15  16
ENDBRANCH   1  15
TORSDOF 5
