REMARK  Name = ZINC000069600459
REMARK                            x       y       z     vdW  Elec       q    Type
REMARK                         _______ _______ _______ _____ _____    ______ ____
ROOT
ATOM      1  C   LIG    1       -6.796  -3.587  -1.491  0.00  0.00    +0.216 C 
ATOM      2  O   LIG    1       -7.230  -3.936  -0.413  0.00  0.00    -0.276 OA
ATOM      3  N   LIG    1       -7.482  -3.870  -2.616  0.00  0.00    -0.289 N 
ATOM      4  C   LIG    1       -6.958  -3.449  -3.918  0.00  0.00    +0.133 C 
ENDROOT
BRANCH   1   5
ATOM      5  C   LIG    1       -5.492  -2.838  -1.571  0.00  0.00    +0.100 C 
BRANCH   5   6
ATOM      6  C   LIG    1       -4.925  -2.648  -0.163  0.00  0.00    +0.044 C 
BRANCH   6   7
ATOM      7  C   LIG    1       -3.620  -1.899  -0.243  0.00  0.00    -0.047 A 
ATOM      8  C   LIG    1       -3.613  -0.517  -0.182  0.00  0.00    +0.007 A 
ATOM      9  C   LIG    1       -2.418   0.172  -0.255  0.00  0.00    +0.046 A 
ATOM     10  C   LIG    1       -1.224  -0.522  -0.391  0.00  0.00    +0.120 A 
ATOM     11  C   LIG    1       -1.235  -1.908  -0.458  0.00  0.00    +0.046 A 
ATOM     12  C   LIG    1       -2.432  -2.593  -0.379  0.00  0.00    +0.007 A 
BRANCH  10  13
ATOM     13  O   LIG    1       -0.048   0.154  -0.463  0.00  0.00    -0.495 OA
ATOM     14  C   LIG    1       -0.113   1.579  -0.387  0.00  0.00    +0.277 C 
ENDBRANCH  10  13
ENDBRANCH   6   7
ENDBRANCH   5   6
ENDBRANCH   1   5
BRANCH   3  15
ATOM     15  C   LIG    1       -8.750  -4.599  -2.538  0.00  0.00    +0.192 C 
BRANCH  15  16
ATOM     16  C   LIG    1       -9.829  -3.807  -3.231  0.00  0.00    -0.016 A 
ATOM     17  C   LIG    1      -10.512  -2.822  -2.542  0.00  0.00    +0.006 A 
ATOM     18  C   LIG    1      -11.502  -2.094  -3.176  0.00  0.00    +0.003 A 
ATOM     19  C   LIG    1      -11.809  -2.350  -4.499  0.00  0.00    +0.038 A 
ATOM     20  C   LIG    1      -11.124  -3.336  -5.190  0.00  0.00    +0.124 A 
ATOM     21  F   LIG    1      -11.424  -3.587  -6.483  0.00  0.00    -0.205 F 
ATOM     22  C   LIG    1      -10.130  -4.061  -4.555  0.00  0.00    +0.044 A 
ENDBRANCH  15  16
BRANCH  15  23
ATOM     23  C   LIG    1       -8.601  -5.940  -3.211  0.00  0.00    +0.236 C 
ATOM     24  N   LIG    1       -9.648  -6.788  -3.261  0.00  0.00    -0.328 N 
ATOM     25  H   LIG    1      -10.496  -6.536  -2.865  0.00  0.00    +0.145 HD
ATOM     26  H   LIG    1       -9.552  -7.651  -3.694  0.00  0.00    +0.145 HD
ATOM     27  O   LIG    1       -7.540  -6.255  -3.707  0.00  0.00    -0.274 OA
ENDBRANCH  15  23
ENDBRANCH   3  15
TORSDOF 7
