REMARK  Name = ZINC000001074794
REMARK                            x       y       z     vdW  Elec       q    Type
REMARK                         _______ _______ _______ _____ _____    ______ ____
ROOT
ATOM      1  C   LIG    1        3.270  -4.406  -5.709  0.00  0.00    +0.175 C 
ATOM      2  C   LIG    1        4.720  -3.975  -5.657  0.00  0.00    +0.256 C 
ATOM      3  O   LIG    1        5.131  -2.837  -5.572  0.00  0.00    -0.272 OA
ATOM      4  N   LIG    1        5.467  -5.090  -5.724  0.00  0.00    -0.271 N 
ATOM      5  C   LIG    1        6.932  -5.095  -5.703  0.00  0.00    +0.138 C 
ATOM      6  C   LIG    1        4.687  -6.244  -5.816  0.00  0.00    +0.042 A 
ATOM      7  C   LIG    1        5.052  -7.585  -5.904  0.00  0.00    +0.024 A 
ATOM      8  C   LIG    1        4.082  -8.563  -5.985  0.00  0.00    +0.005 A 
ATOM      9  C   LIG    1        2.742  -8.221  -5.981  0.00  0.00    -0.050 A 
ATOM     10  C   LIG    1        2.372  -6.890  -5.895  0.00  0.00    +0.012 A 
ATOM     11  C   LIG    1        1.688  -9.294  -6.071  0.00  0.00    +0.044 C 
ATOM     12  C   LIG    1        3.338  -5.912  -5.812  0.00  0.00    +0.015 A 
ENDROOT
BRANCH   1  13
ATOM     13  O   LIG    1        2.621  -3.854  -6.856  0.00  0.00    -0.374 OA
ATOM     14  H   LIG    1        2.576  -2.888  -6.855  0.00  0.00    +0.211 HD
ENDBRANCH   1  13
BRANCH   1  15
ATOM     15  C   LIG    1        2.541  -3.989  -4.430  0.00  0.00    +0.129 C 
BRANCH  15  16
ATOM     16  C   LIG    1        2.487  -2.485  -4.350  0.00  0.00    +0.167 C 
ATOM     17  O   LIG    1        2.983  -1.813  -5.229  0.00  0.00    -0.292 OA
BRANCH  16  18
ATOM     18  C   LIG    1        1.834  -1.834  -3.207  0.00  0.00    +0.018 A 
ATOM     19  C   LIG    1        1.262  -2.607  -2.190  0.00  0.00    +0.015 A 
ATOM     20  C   LIG    1        0.658  -1.994  -1.122  0.00  0.00    +0.046 A 
ATOM     21  C   LIG    1        0.605  -0.606  -1.054  0.00  0.00    +0.120 A 
ATOM     22  C   LIG    1        1.172   0.167  -2.061  0.00  0.00    +0.046 A 
ATOM     23  C   LIG    1        1.782  -0.436  -3.130  0.00  0.00    +0.015 A 
BRANCH  21  24
ATOM     24  O   LIG    1        0.002  -0.004   0.002  0.00  0.00    -0.495 OA
ATOM     25  C   LIG    1       -0.017   1.425   0.010  0.00  0.00    +0.277 C 
ENDBRANCH  21  24
ENDBRANCH  16  18
ENDBRANCH  15  16
ENDBRANCH   1  15
TORSDOF 5
