REMARK  Name = ZINC000222107955
REMARK                            x       y       z     vdW  Elec       q    Type
REMARK                         _______ _______ _______ _____ _____    ______ ____
ROOT
ATOM      1  C   LIG    1       -1.341  -3.328  -0.012  0.00  0.00    +0.179 C 
ENDROOT
BRANCH   1   2
ATOM      2  N   LIG    1       -0.768  -4.264   0.958  0.00  0.00    -0.285 N 
ATOM      3  C   LIG    1       -1.540  -5.224   1.505  0.00  0.00    +0.303 C 
ATOM      4  N   LIG    1       -0.990  -6.148   2.319  0.00  0.00    -0.283 N 
ATOM      5  C   LIG    1       -1.795  -7.264   2.835  0.00  0.00    +0.140 C 
ATOM      6  C   LIG    1       -1.077  -8.580   2.499  0.00  0.00    +0.135 C 
ATOM      7  C   LIG    1        0.351  -8.529   3.047  0.00  0.00    +0.017 C 
ATOM      8  C   LIG    1        1.059  -9.852   2.748  0.00  0.00    +0.010 C 
ATOM      9  C   LIG    1        1.114  -7.381   2.382  0.00  0.00    +0.025 C 
ATOM     10  C   LIG    1        0.422  -6.055   2.711  0.00  0.00    +0.110 C 
ATOM     11  O   LIG    1       -2.731  -5.257   1.265  0.00  0.00    -0.253 OA
ATOM     12  H   LIG    1        0.167  -4.193   1.206  0.00  0.00    +0.151 HD
BRANCH   6  13
ATOM     13  O   LIG    1       -1.778  -9.671   3.098  0.00  0.00    -0.390 OA
ATOM     14  H   LIG    1       -2.692  -9.764   2.796  0.00  0.00    +0.210 HD
ENDBRANCH   6  13
ENDBRANCH   1   2
BRANCH   1  15
ATOM     15  C   LIG    1       -1.301  -3.943  -1.388  0.00  0.00    +0.016 A 
ATOM     16  C   LIG    1       -0.439  -4.990  -1.652  0.00  0.00    +0.009 A 
ATOM     17  C   LIG    1       -0.401  -5.554  -2.913  0.00  0.00    +0.001 A 
ATOM     18  C   LIG    1       -1.226  -5.071  -3.912  0.00  0.00    +0.003 A 
ATOM     19  C   LIG    1       -2.089  -4.024  -3.651  0.00  0.00    +0.039 A 
ATOM     20  C   LIG    1       -2.132  -3.462  -2.386  0.00  0.00    +0.129 A 
ATOM     21  F   LIG    1       -2.975  -2.439  -2.129  0.00  0.00    -0.205 F 
ENDBRANCH   1  15
BRANCH   1  22
ATOM     22  C   LIG    1       -0.543  -2.050  -0.010  0.00  0.00    +0.196 A 
ATOM     23  N   LIG    1       -1.040  -0.801  -0.002  0.00  0.00    -0.194 NA
ATOM     24  C   LIG    1        0.003  -0.006  -0.003  0.00  0.00    +0.224 A 
ATOM     25  C   LIG    1       -0.018   1.501   0.004  0.00  0.00    +0.112 C 
ATOM     26  O   LIG    1        1.087  -0.787  -0.017  0.00  0.00    -0.338 OA
ATOM     27  N   LIG    1        0.753  -1.953  -0.015  0.00  0.00    -0.059 NA
ENDBRANCH   1  22
TORSDOF 4
