REMARK  Name = ZINC000302875212
REMARK                            x       y       z     vdW  Elec       q    Type
REMARK                         _______ _______ _______ _____ _____    ______ ____
ROOT
ATOM      1  C   LIG    1        0.855  -5.217  -4.314  0.00  0.00    +0.107 C 
ENDROOT
BRANCH   1   2
ATOM      2  N   LIG    1        1.493  -5.940  -5.417  0.00  0.00    -0.329 N 
ATOM      3  H   LIG    1        2.433  -6.171  -5.366  0.00  0.00    +0.147 HD
BRANCH   2   4
ATOM      4  C   LIG    1        0.753  -6.293  -6.535  0.00  0.00    +0.124 A 
ATOM      5  C   LIG    1       -0.596  -5.960  -6.622  0.00  0.00    +0.087 A 
ATOM      6  C   LIG    1       -1.295  -6.337  -7.766  0.00  0.00    +0.126 A 
ATOM      7  N   LIG    1       -0.652  -6.997  -8.728  0.00  0.00    -0.221 NA
ATOM      8  C   LIG    1        0.626  -7.293  -8.607  0.00  0.00    +0.225 A 
ATOM      9  N   LIG    1        1.323  -6.950  -7.543  0.00  0.00    -0.221 NA
BRANCH   6  10
ATOM     10  N   LIG    1       -2.639  -6.029  -7.901  0.00  0.00    -0.315 N 
ATOM     11  C   LIG    1       -3.434  -5.217  -6.961  0.00  0.00    +0.106 C 
ATOM     12  C   LIG    1       -4.604  -4.659  -7.814  0.00  0.00    +0.020 C 
ATOM     13  C   LIG    1       -4.909  -5.862  -8.744  0.00  0.00    +0.020 C 
ATOM     14  C   LIG    1       -3.511  -6.463  -9.002  0.00  0.00    +0.106 C 
ENDBRANCH   6  10
ENDBRANCH   2   4
ENDBRANCH   1   2
BRANCH   1  15
ATOM     15  C   LIG    1        1.885  -4.953  -3.214  0.00  0.00    +0.054 C 
BRANCH  15  16
ATOM     16  C   LIG    1        1.228  -4.209  -2.080  0.00  0.00    -0.045 A 
ATOM     17  C   LIG    1        0.642  -4.912  -1.042  0.00  0.00    +0.004 A 
ATOM     18  C   LIG    1        0.038  -4.237   0.004  0.00  0.00    +0.001 A 
ATOM     19  C   LIG    1        0.016  -2.857   0.018  0.00  0.00    +0.013 A 
ATOM     20  C   LIG    1        0.605  -2.143  -1.026  0.00  0.00    +0.037 A 
ATOM     21  C   LIG    1        1.208  -2.830  -2.081  0.00  0.00    +0.016 A 
BRANCH  20  22
ATOM     22  C   LIG    1        0.585  -0.664  -1.018  0.00  0.00    +0.244 C 
ATOM     23  N   LIG    1        0.002  -0.004   0.002  0.00  0.00    -0.314 N 
ATOM     24  H   LIG    1       -0.404  -0.499   0.731  0.00  0.00    +0.149 HD
ATOM     25  C   LIG    1       -0.018   1.461   0.010  0.00  0.00    +0.128 C 
ATOM     26  O   LIG    1        1.094  -0.045  -1.931  0.00  0.00    -0.270 OA
ENDBRANCH  20  22
ENDBRANCH  15  16
ENDBRANCH   1  15
TORSDOF 6
