REMARK  Name = ZINC000058179552
REMARK                            x       y       z     vdW  Elec       q    Type
REMARK                         _______ _______ _______ _____ _____    ______ ____
ROOT
ATOM      1  C   LIG    1        3.423  -1.746   3.805  0.00  0.00    +0.253 C 
ATOM      2  O   LIG    1        3.255  -1.963   4.990  0.00  0.00    -0.269 OA
ATOM      3  N   LIG    1        4.649  -1.882   3.262  0.00  0.00    -0.295 N 
ATOM      4  C   LIG    1        5.766  -2.427   4.049  0.00  0.00    +0.123 C 
ATOM      5  C   LIG    1        6.957  -1.476   3.937  0.00  0.00    +0.104 C 
ATOM      6  N   LIG    1        7.255  -1.232   2.520  0.00  0.00    -0.294 NA
ATOM      7  C   LIG    1        6.133  -0.565   1.846  0.00  0.00    +0.104 C 
ATOM      8  C   LIG    1        4.908  -1.484   1.870  0.00  0.00    +0.123 C 
ENDROOT
BRANCH   1   9
ATOM      9  C   LIG    1        2.293  -1.335   2.967  0.00  0.00    +0.075 A 
ATOM     10  C   LIG    1        1.179  -0.676   3.405  0.00  0.00    +0.024 A 
ATOM     11  C   LIG    1        0.273  -0.414   2.405  0.00  0.00    -0.040 A 
ATOM     12  C   LIG    1       -1.028   0.303   2.660  0.00  0.00    +0.044 C 
ATOM     13  C   LIG    1        0.630  -0.843   1.189  0.00  0.00    -0.007 A 
ATOM     14  S   LIG    1        2.149  -1.619   1.238  0.00  0.00    -0.088 S 
BRANCH  13  15
ATOM     15  C   LIG    1       -0.201  -0.669  -0.056  0.00  0.00    +0.039 C 
ATOM     16  C   LIG    1        0.170   0.650  -0.737  0.00  0.00    +0.009 C 
ENDBRANCH  13  15
ENDBRANCH   1   9
BRANCH   6  17
ATOM     17  C   LIG    1        8.495  -0.458   2.369  0.00  0.00    +0.145 C 
BRANCH  17  18
ATOM     18  C   LIG    1        9.662  -1.280   2.852  0.00  0.00    +0.121 A 
ATOM     19  N   LIG    1       10.113  -1.300   4.071  0.00  0.00    -0.052 NA
ATOM     20  O   LIG    1       11.212  -2.196   4.102  0.00  0.00    -0.242 OA
ATOM     21  N   LIG    1       11.358  -2.697   2.783  0.00  0.00    -0.054 NA
ATOM     22  C   LIG    1       10.430  -2.151   2.055  0.00  0.00    +0.106 A 
ATOM     23  C   LIG    1       10.216  -2.402   0.584  0.00  0.00    +0.071 C 
ENDBRANCH  17  18
ENDBRANCH   6  17
TORSDOF 4
