REMARK  Name = ZINC000095992492
REMARK                            x       y       z     vdW  Elec       q    Type
REMARK                         _______ _______ _______ _____ _____    ______ ____
ROOT
ATOM      1  C   LIG    1       -0.019   1.526   0.010  0.00  0.00    +0.048 C 
ATOM      2  C   LIG    1        0.002  -0.004   0.002  0.00  0.00    +0.101 C 
ENDROOT
BRANCH   2   3
ATOM      3  C   LIG    1        0.707  -0.490  -1.238  0.00  0.00    -0.015 A 
ATOM      4  C   LIG    1        2.073  -0.702  -1.218  0.00  0.00    +0.008 A 
ATOM      5  C   LIG    1        2.720  -1.151  -2.354  0.00  0.00    +0.027 A 
ATOM      6  C   LIG    1        2.002  -1.381  -3.513  0.00  0.00    +0.088 A 
ATOM      7  C   LIG    1        0.636  -1.164  -3.534  0.00  0.00    +0.027 A 
ATOM      8  C   LIG    1       -0.011  -0.719  -2.397  0.00  0.00    +0.008 A 
BRANCH   6   9
ATOM      9  S   LIG    1        2.826  -1.950  -4.962  0.00  0.00    -0.006 S 
ATOM     10  O   LIG    1        3.973  -2.630  -4.469  0.00  0.00    -0.170 OA
ATOM     11  O   LIG    1        1.820  -2.642  -5.689  0.00  0.00    -0.170 OA
ATOM     12  C   LIG    1        3.310  -0.434  -5.832  0.00  0.00    +0.200 C 
ENDBRANCH   6   9
ENDBRANCH   2   3
BRANCH   2  13
ATOM     13  O   LIG    1        0.693  -0.477   1.160  0.00  0.00    -0.383 OA
ATOM     14  H   LIG    1        0.745  -1.441   1.220  0.00  0.00    +0.211 HD
ENDBRANCH   2  13
BRANCH   2  15
ATOM     15  C   LIG    1       -1.433  -0.534   0.013  0.00  0.00    +0.124 C 
BRANCH  15  16
ATOM     16  N   LIG    1       -2.157   0.036   1.157  0.00  0.00    -0.291 NA
ATOM     17  C   LIG    1       -1.467  -0.284   2.438  0.00  0.00    +0.120 C 
ATOM     18  C   LIG    1       -2.573  -0.242   3.473  0.00  0.00    -0.029 A 
ATOM     19  C   LIG    1       -2.556  -0.045   4.838  0.00  0.00    +0.005 A 
ATOM     20  C   LIG    1       -3.741  -0.056   5.552  0.00  0.00    +0.000 A 
ATOM     21  C   LIG    1       -4.941  -0.266   4.898  0.00  0.00    +0.000 A 
ATOM     22  C   LIG    1       -4.958  -0.463   3.529  0.00  0.00    +0.005 A 
ATOM     23  C   LIG    1       -3.776  -0.451   2.817  0.00  0.00    -0.029 A 
ATOM     24  C   LIG    1       -3.474  -0.634   1.343  0.00  0.00    +0.120 C 
ENDBRANCH  15  16
ENDBRANCH   2  15
TORSDOF 5
