REMARK  Name = ZINC000042342051
REMARK                            x       y       z     vdW  Elec       q    Type
REMARK                         _______ _______ _______ _____ _____    ______ ____
ROOT
ATOM      1  O   LIG    1        0.002  -0.004   0.002  0.00  0.00    -0.253 OA
ATOM      2  C   LIG    1       -0.014   1.212   0.009  0.00  0.00    +0.300 C 
ATOM      3  N   LIG    1       -1.191   1.870   0.018  0.00  0.00    -0.292 N 
ATOM      4  H   LIG    1       -1.204   2.840   0.023  0.00  0.00    +0.151 HD
ATOM      5  N   LIG    1        1.143   1.901   0.001  0.00  0.00    -0.296 N 
ATOM      6  H   LIG    1        1.130   2.871   0.007  0.00  0.00    +0.150 HD
ENDROOT
BRANCH   3   7
ATOM      7  C   LIG    1       -2.449   1.120   0.020  0.00  0.00    +0.182 C 
BRANCH   7   8
ATOM      8  C   LIG    1       -3.608   2.084   0.030  0.00  0.00    +0.151 A 
ATOM      9  N   LIG    1       -4.196   2.579   1.087  0.00  0.00    -0.133 NA
ATOM     10  N   LIG    1       -5.143   3.373   0.726  0.00  0.00    -0.134 NA
ATOM     11  C   LIG    1       -5.196   3.422  -0.575  0.00  0.00    +0.133 A 
ATOM     12  C   LIG    1       -6.136   4.247  -1.417  0.00  0.00    +0.076 C 
ATOM     13  C   LIG    1       -6.718   3.365  -2.526  0.00  0.00    +0.008 C 
ATOM     14  C   LIG    1       -5.797   3.401  -3.742  0.00  0.00    +0.002 C 
ATOM     15  C   LIG    1       -4.339   3.533  -3.307  0.00  0.00    +0.022 C 
ATOM     16  C   LIG    1       -3.941   2.322  -2.458  0.00  0.00    +0.125 C 
ATOM     17  N   LIG    1       -4.230   2.603  -1.051  0.00  0.00    -0.314 N 
ENDBRANCH   7   8
ENDBRANCH   3   7
BRANCH   5  18
ATOM     18  C   LIG    1        2.422   1.186  -0.015  0.00  0.00    +0.146 C 
BRANCH  18  19
ATOM     19  C   LIG    1        3.571   2.196  -0.020  0.00  0.00    +0.247 C 
BRANCH  19  20
ATOM     20  O   LIG    1        3.565   2.932   1.205  0.00  0.00    -0.490 OA
BRANCH  20  21
ATOM     21  C   LIG    1        4.529   3.877   1.362  0.00  0.00    +0.123 A 
ATOM     22  C   LIG    1        4.581   4.628   2.527  0.00  0.00    +0.084 A 
ATOM     23  C   LIG    1        5.568   5.585   2.687  0.00  0.00    +0.127 A 
ATOM     24  F   LIG    1        5.624   6.313   3.824  0.00  0.00    -0.205 F 
ATOM     25  C   LIG    1        6.494   5.800   1.680  0.00  0.00    +0.038 A 
ATOM     26  C   LIG    1        6.438   5.056   0.516  0.00  0.00    +0.006 A 
ATOM     27  C   LIG    1        5.458   4.095   0.355  0.00  0.00    +0.046 A 
ENDBRANCH  20  21
ENDBRANCH  19  20
ENDBRANCH  18  19
ENDBRANCH   5  18
TORSDOF 6
