REMARK  Name = ZINC000058179737
REMARK                            x       y       z     vdW  Elec       q    Type
REMARK                         _______ _______ _______ _____ _____    ______ ____
ROOT
ATOM      1  N   LIG    1       -0.762  -2.993  -3.152  0.00  0.00    -0.174 NA
ATOM      2  C   LIG    1       -0.026  -2.391  -4.267  0.00  0.00    +0.132 C 
ENDROOT
BRANCH   1   3
ATOM      3  S   LIG    1        0.042  -3.437  -1.774  0.00  0.00    +0.080 S 
ATOM      4  O   LIG    1       -0.751  -4.439  -1.152  0.00  0.00    -0.151 OA
ATOM      5  O   LIG    1        1.398  -3.640  -2.148  0.00  0.00    -0.151 OA
BRANCH   3   6
ATOM      6  C   LIG    1        0.028  -2.047  -0.691  0.00  0.00    +0.212 A 
ATOM      7  C   LIG    1        0.034  -2.093   0.655  0.00  0.00    +0.135 A 
ATOM      8  N   LIG    1        0.023  -0.797   1.095  0.00  0.00    -0.336 N 
ATOM      9  C   LIG    1        0.025  -0.353   2.491  0.00  0.00    +0.150 C 
ATOM     10  C   LIG    1        0.002  -0.004   0.002  0.00  0.00    +0.109 A 
ATOM     11  C   LIG    1       -0.018   1.503   0.010  0.00  0.00    +0.086 C 
ATOM     12  N   LIG    1        0.008  -0.759  -1.063  0.00  0.00    -0.213 NA
ENDBRANCH   3   6
ENDBRANCH   1   3
BRANCH   1  13
ATOM     13  C   LIG    1       -2.208  -3.202  -3.256  0.00  0.00    +0.148 C 
BRANCH  13  14
ATOM     14  C   LIG    1       -2.928  -1.939  -2.860  0.00  0.00    +0.022 A 
ATOM     15  C   LIG    1       -3.281  -1.729  -1.539  0.00  0.00    +0.129 A 
ATOM     16  F   LIG    1       -2.982  -2.656  -0.603  0.00  0.00    -0.205 F 
ATOM     17  C   LIG    1       -3.943  -0.567  -1.176  0.00  0.00    +0.039 A 
ATOM     18  C   LIG    1       -4.249   0.381  -2.133  0.00  0.00    +0.004 A 
ATOM     19  C   LIG    1       -3.896   0.172  -3.453  0.00  0.00    +0.020 A 
ATOM     20  C   LIG    1       -3.230  -0.986  -3.816  0.00  0.00    +0.048 A 
ATOM     21 CL   LIG    1       -2.787  -1.248  -5.474  0.00  0.00    -0.083 Cl
ENDBRANCH  13  14
ENDBRANCH   1  13
TORSDOF 4
