REMARK  Name = ZINC000042359930
REMARK                            x       y       z     vdW  Elec       q    Type
REMARK                         _______ _______ _______ _____ _____    ______ ____
ROOT
ATOM      1  N   LIG    1       -2.422  -3.296   1.374  0.00  0.00    -0.294 NA
ATOM      2  C   LIG    1       -1.272  -3.503   2.265  0.00  0.00    +0.104 C 
ATOM      3  C   LIG    1       -1.761  -3.570   3.716  0.00  0.00    +0.123 C 
ATOM      4  N   LIG    1       -2.811  -4.595   3.808  0.00  0.00    -0.299 N 
ATOM      5  C   LIG    1       -2.751  -5.565   4.742  0.00  0.00    +0.216 C 
ATOM      6  O   LIG    1       -1.821  -5.600   5.521  0.00  0.00    -0.276 OA
ATOM      7  C   LIG    1       -3.929  -4.534   2.855  0.00  0.00    +0.123 C 
ATOM      8  C   LIG    1       -3.356  -4.428   1.438  0.00  0.00    +0.104 C 
ENDROOT
BRANCH   5   9
ATOM      9  C   LIG    1       -3.838  -6.605   4.819  0.00  0.00    +0.100 C 
BRANCH   9  10
ATOM     10  C   LIG    1       -3.531  -7.581   5.957  0.00  0.00    +0.046 C 
BRANCH  10  11
ATOM     11  C   LIG    1       -4.618  -8.622   6.034  0.00  0.00    -0.029 A 
ATOM     12  C   LIG    1       -5.737  -8.411   6.825  0.00  0.00    +0.006 A 
ATOM     13  C   LIG    1       -6.712  -9.395   6.865  0.00  0.00    +0.020 A 
ATOM     14  C   LIG    1       -6.538 -10.546   6.120  0.00  0.00    +0.111 A 
ATOM     15  N   LIG    1       -5.460 -10.713   5.379  0.00  0.00    -0.263 NA
ATOM     16  C   LIG    1       -4.515  -9.796   5.313  0.00  0.00    +0.114 A 
ENDBRANCH  10  11
ENDBRANCH   9  10
ENDBRANCH   5   9
BRANCH   1  17
ATOM     17  C   LIG    1       -1.981  -3.055  -0.007  0.00  0.00    +0.140 C 
BRANCH  17  18
ATOM     18  C   LIG    1       -0.850  -2.060  -0.006  0.00  0.00    +0.063 A 
ATOM     19  N   LIG    1       -1.046  -0.757   0.003  0.00  0.00    -0.248 NA
ATOM     20  C   LIG    1        0.002  -0.004   0.002  0.00  0.00    +0.076 A 
ATOM     21  C   LIG    1       -0.018   1.503   0.010  0.00  0.00    +0.073 C 
ATOM     22  S   LIG    1        1.417  -0.964  -0.017  0.00  0.00    -0.080 S 
ATOM     23  C   LIG    1        0.436  -2.427  -0.015  0.00  0.00    +0.071 A 
ENDBRANCH  17  18
ENDBRANCH   1  17
TORSDOF 5
