REMARK  Name = ZINC000042325812
REMARK                            x       y       z     vdW  Elec       q    Type
REMARK                         _______ _______ _______ _____ _____    ______ ____
ROOT
ATOM      1  N   LIG    1        0.711  -0.489   1.189  0.00  0.00    -0.294 N 
ATOM      2  C   LIG    1        0.051  -0.633   2.355  0.00  0.00    +0.301 C 
ATOM      3  N   LIG    1        0.703  -1.080   3.447  0.00  0.00    -0.286 N 
ATOM      4  H   LIG    1        1.647  -1.298   3.394  0.00  0.00    +0.151 HD
ATOM      5  O   LIG    1       -1.132  -0.361   2.423  0.00  0.00    -0.253 OA
ATOM      6  H   LIG    1        1.654  -0.707   1.135  0.00  0.00    +0.151 HD
ENDROOT
BRANCH   1   7
ATOM      7  C   LIG    1        0.002  -0.004   0.002  0.00  0.00    +0.100 C 
ATOM      8  C   LIG    1       -0.019   1.526   0.010  0.00  0.00    +0.030 C 
BRANCH   7   9
ATOM      9  C   LIG    1        0.718  -0.497  -1.257  0.00  0.00    +0.138 C 
ATOM     10  O   LIG    1        2.003   0.133  -1.379  0.00  0.00    -0.375 OA
ATOM     11  C   LIG    1        2.287   0.399  -2.759  0.00  0.00    +0.160 C 
ATOM     12  C   LIG    1        1.068  -0.066  -3.584  0.00  0.00    +0.031 C 
ATOM     13  C   LIG    1       -0.066  -0.071  -2.523  0.00  0.00    +0.035 C 
ENDBRANCH   7   9
ENDBRANCH   1   7
BRANCH   3  14
ATOM     14  C   LIG    1       -0.014  -1.237   4.715  0.00  0.00    +0.171 C 
BRANCH  14  15
ATOM     15  C   LIG    1        0.685  -2.268   5.563  0.00  0.00    -0.020 A 
ATOM     16  C   LIG    1       -0.056  -3.176   6.298  0.00  0.00    +0.006 A 
ATOM     17  C   LIG    1        0.585  -4.125   7.072  0.00  0.00    +0.000 A 
ATOM     18  C   LIG    1        1.966  -4.161   7.119  0.00  0.00    +0.000 A 
ATOM     19  C   LIG    1        2.706  -3.251   6.388  0.00  0.00    +0.000 A 
ATOM     20  C   LIG    1        2.066  -2.304   5.611  0.00  0.00    +0.006 A 
ENDBRANCH  14  15
BRANCH  14  21
ATOM     21  C   LIG    1       -0.037   0.082   5.446  0.00  0.00    +0.134 A 
ATOM     22  N   LIG    1       -1.113   0.626   6.053  0.00  0.00    -0.336 N 
ATOM     23  C   LIG    1       -0.712   1.817   6.595  0.00  0.00    +0.106 A 
ATOM     24  C   LIG    1        0.593   1.963   6.294  0.00  0.00    +0.130 A 
ATOM     25  C   LIG    1       -2.456   0.047   6.125  0.00  0.00    +0.150 C 
ATOM     26  N   LIG    1        0.979   0.888   5.591  0.00  0.00    -0.238 NA
ENDBRANCH  14  21
ENDBRANCH   3  14
TORSDOF 5
