REMARK  Name = ZINC000025835317
REMARK                            x       y       z     vdW  Elec       q    Type
REMARK                         _______ _______ _______ _____ _____    ______ ____
ROOT
ATOM      1  C   LIG    1       -3.670  -6.139   0.458  0.00  0.00    +0.046 A 
ATOM      2  C   LIG    1       -2.461  -6.755   0.748  0.00  0.00    +0.024 A 
ATOM      3  C   LIG    1       -2.423  -8.106   1.031  0.00  0.00    +0.002 A 
ATOM      4  C   LIG    1       -3.588  -8.856   1.028  0.00  0.00    +0.001 A 
ATOM      5  C   LIG    1       -4.798  -8.261   0.742  0.00  0.00    +0.015 A 
ATOM      6  C   LIG    1       -4.853  -6.894   0.460  0.00  0.00    +0.058 A 
ENDROOT
BRANCH   6   7
ATOM      7  C   LIG    1       -6.144  -6.251   0.153  0.00  0.00    +0.246 C 
ATOM      8  N   LIG    1       -7.287  -6.960   0.239  0.00  0.00    -0.308 N 
ATOM      9  H   LIG    1       -7.261  -7.893   0.502  0.00  0.00    +0.149 HD
ATOM     10  O   LIG    1       -6.178  -5.081  -0.176  0.00  0.00    -0.270 OA
BRANCH   8  11
ATOM     11  C   LIG    1       -8.570  -6.321  -0.066  0.00  0.00    +0.073 C 
ATOM     12  C   LIG    1       -9.710  -7.054   0.664  0.00  0.00    +0.022 C 
ATOM     13  C   LIG    1      -10.663  -7.583  -0.428  0.00  0.00    +0.002 C 
ATOM     14  C   LIG    1       -9.774  -7.684  -1.692  0.00  0.00    +0.002 C 
ATOM     15  C   LIG    1       -8.870  -6.431  -1.575  0.00  0.00    +0.022 C 
ENDBRANCH   8  11
ENDBRANCH   6   7
BRANCH   1  16
ATOM     16  N   LIG    1       -3.711  -4.776   0.173  0.00  0.00    -0.284 N 
ATOM     17  C   LIG    1       -2.894  -3.926   0.827  0.00  0.00    +0.231 C 
ATOM     18  O   LIG    1       -2.070  -4.356   1.605  0.00  0.00    -0.274 OA
ATOM     19  H   LIG    1       -4.327  -4.439  -0.496  0.00  0.00    +0.155 HD
BRANCH  17  20
ATOM     20  C   LIG    1       -3.005  -2.442   0.589  0.00  0.00    +0.181 C 
BRANCH  20  21
ATOM     21  N   LIG    1       -1.917  -1.751   1.295  0.00  0.00    -0.289 NA
ATOM     22  C   LIG    1       -2.130  -0.296   1.295  0.00  0.00    +0.113 C 
ATOM     23  C   LIG    1       -1.009   0.378   2.089  0.00  0.00    +0.175 C 
ATOM     24  O   LIG    1        0.254   0.016   1.524  0.00  0.00    -0.374 OA
ATOM     25  C   LIG    1        0.495  -1.394   1.508  0.00  0.00    +0.129 C 
ATOM     26  C   LIG    1        1.849  -1.674   0.855  0.00  0.00    +0.039 C 
ATOM     27  C   LIG    1       -0.612  -2.086   0.708  0.00  0.00    +0.116 C 
ENDBRANCH  20  21
ENDBRANCH  17  20
ENDBRANCH   1  16
TORSDOF 5
