REMARK  Name = ZINC000058197654
REMARK                            x       y       z     vdW  Elec       q    Type
REMARK                         _______ _______ _______ _____ _____    ______ ____
ROOT
ATOM      1  C   LIG    1       -4.967  -4.253   0.000  0.00  0.00    -0.030 A 
ATOM      2  C   LIG    1       -5.633  -4.098   1.201  0.00  0.00    +0.007 A 
ATOM      3  C   LIG    1       -6.979  -3.785   1.210  0.00  0.00    +0.029 A 
ATOM      4  C   LIG    1       -7.660  -3.627   0.017  0.00  0.00    +0.105 A 
ATOM      5  C   LIG    1       -6.993  -3.780  -1.185  0.00  0.00    +0.029 A 
ATOM      6  C   LIG    1       -5.646  -4.088  -1.193  0.00  0.00    +0.007 A 
ENDROOT
BRANCH   4   7
ATOM      7  S   LIG    1       -9.376  -3.229   0.027  0.00  0.00    +0.059 S 
ATOM      8  O   LIG    1       -9.883  -3.671   1.279  0.00  0.00    -0.153 OA
ATOM      9  O   LIG    1       -9.897  -3.665  -1.220  0.00  0.00    -0.153 OA
BRANCH   7  10
ATOM     10  N   LIG    1       -9.496  -1.577   0.032  0.00  0.00    -0.187 NA
ATOM     11  H   LIG    1       -9.881  -1.121   0.796  0.00  0.00    +0.148 HD
BRANCH  10  12
ATOM     12  C   LIG    1       -9.021  -0.805  -1.119  0.00  0.00    +0.077 C 
ATOM     13  C   LIG    1       -8.388   0.560  -0.841  0.00  0.00    +0.022 C 
ATOM     14  C   LIG    1       -9.780   0.476  -1.472  0.00  0.00    +0.022 C 
ENDBRANCH  10  12
ENDBRANCH   7  10
ENDBRANCH   4   7
BRANCH   1  15
ATOM     15  C   LIG    1       -3.499  -4.593  -0.009  0.00  0.00    +0.139 C 
BRANCH  15  16
ATOM     16  N   LIG    1       -2.711  -3.358  -0.005  0.00  0.00    -0.307 N 
ATOM     17  H   LIG    1       -3.158  -2.498   0.002  0.00  0.00    +0.149 HD
ATOM     18  C   LIG    1       -1.364  -3.418  -0.012  0.00  0.00    +0.248 C 
ATOM     19  O   LIG    1       -0.804  -4.497  -0.022  0.00  0.00    -0.270 OA
BRANCH  18  20
ATOM     20  C   LIG    1       -0.571  -2.176  -0.008  0.00  0.00    +0.077 A 
ATOM     21  C   LIG    1       -1.081  -0.797   0.003  0.00  0.00    +0.057 A 
ATOM     22  C   LIG    1        0.002  -0.004   0.002  0.00  0.00    +0.103 A 
ATOM     23  C   LIG    1       -0.018   1.503   0.010  0.00  0.00    +0.086 C 
ATOM     24  O   LIG    1        1.106  -0.767  -0.013  0.00  0.00    -0.464 OA
ATOM     25  C   LIG    1        0.788  -2.066  -0.014  0.00  0.00    +0.114 A 
ATOM     26  C   LIG    1        1.766  -3.212  -0.026  0.00  0.00    +0.087 C 
ENDBRANCH  18  20
ENDBRANCH  15  16
ENDBRANCH   1  15
TORSDOF 6
