REMARK  Name = ZINC000069616128
REMARK                            x       y       z     vdW  Elec       q    Type
REMARK                         _______ _______ _______ _____ _____    ______ ____
ROOT
ATOM      1  N   LIG    1        3.190  -1.733  -2.833  0.00  0.00    -0.306 N 
ATOM      2  H   LIG    1        3.513  -1.887  -1.931  0.00  0.00    +0.149 HD
ATOM      3  C   LIG    1        3.975  -1.108  -3.733  0.00  0.00    +0.268 C 
ATOM      4  O   LIG    1        3.570  -0.916  -4.863  0.00  0.00    -0.268 OA
ENDROOT
BRANCH   3   5
ATOM      5  C   LIG    1        5.325  -0.658  -3.346  0.00  0.00    +0.193 A 
ATOM      6  N   LIG    1        5.771  -0.867  -2.128  0.00  0.00    -0.162 NA
ATOM      7  N   LIG    1        6.928  -0.509  -1.713  0.00  0.00    -0.266 N 
ATOM      8  C   LIG    1        7.292  -0.808  -0.326  0.00  0.00    +0.173 C 
ATOM      9  C   LIG    1        7.845   0.142  -2.502  0.00  0.00    +0.071 A 
ATOM     10  C   LIG    1        9.093   0.513  -2.010  0.00  0.00    +0.028 A 
ATOM     11  C   LIG    1        9.985   1.165  -2.834  0.00  0.00    +0.002 A 
ATOM     12  C   LIG    1        9.655   1.456  -4.150  0.00  0.00    +0.001 A 
ATOM     13  C   LIG    1        8.434   1.101  -4.655  0.00  0.00    +0.014 A 
ATOM     14  C   LIG    1        7.519   0.442  -3.839  0.00  0.00    +0.049 A 
ATOM     15  C   LIG    1        6.190   0.027  -4.325  0.00  0.00    +0.220 A 
ATOM     16  O   LIG    1        5.827   0.241  -5.468  0.00  0.00    -0.285 OA
ENDBRANCH   3   5
BRANCH   1  17
ATOM     17  C   LIG    1        1.849  -2.181  -3.217  0.00  0.00    +0.140 C 
BRANCH  17  18
ATOM     18  C   LIG    1        1.184  -2.844  -2.039  0.00  0.00    -0.025 A 
ATOM     19  C   LIG    1        0.614  -2.074  -1.042  0.00  0.00    -0.017 A 
ATOM     20  C   LIG    1        0.003  -2.682   0.038  0.00  0.00    +0.006 A 
ATOM     21  C   LIG    1       -0.032  -4.062   0.125  0.00  0.00    +0.000 A 
ATOM     22  C   LIG    1        0.543  -4.832  -0.868  0.00  0.00    +0.000 A 
ATOM     23  C   LIG    1        1.153  -4.223  -1.949  0.00  0.00    +0.005 A 
BRANCH  19  24
ATOM     24  C   LIG    1        0.652  -0.570  -1.138  0.00  0.00    +0.195 C 
BRANCH  24  25
ATOM     25  O   LIG    1        0.002  -0.004   0.002  0.00  0.00    -0.378 OA
ATOM     26  C   LIG    1       -0.017   1.425   0.010  0.00  0.00    +0.194 C 
ENDBRANCH  24  25
ENDBRANCH  19  24
ENDBRANCH  17  18
ENDBRANCH   1  17
TORSDOF 5
