REMARK  Name = ZINC000025823037
REMARK                            x       y       z     vdW  Elec       q    Type
REMARK                         _______ _______ _______ _____ _____    ______ ____
ROOT
ATOM      1  C   LIG    1        1.451  -2.515   2.386  0.00  0.00    +0.041 A 
ATOM      2  C   LIG    1        2.010  -1.695   3.368  0.00  0.00    +0.014 A 
ATOM      3  C   LIG    1        2.657  -2.259   4.448  0.00  0.00    +0.023 A 
ATOM      4  C   LIG    1        2.753  -3.636   4.559  0.00  0.00    +0.067 A 
ATOM      5 CL   LIG    1        3.568  -4.339   5.921  0.00  0.00    -0.082 Cl
ATOM      6  C   LIG    1        2.200  -4.455   3.588  0.00  0.00    +0.124 A 
ATOM      7  C   LIG    1        1.546  -3.903   2.507  0.00  0.00    +0.043 A 
ENDROOT
BRANCH   1   8
ATOM      8  C   LIG    1        0.757  -1.917   1.227  0.00  0.00    +0.267 C 
ATOM      9  N   LIG    1        0.667  -0.577   1.113  0.00  0.00    -0.191 N 
ATOM     10  H   LIG    1        1.058  -0.005   1.792  0.00  0.00    +0.183 HD
ATOM     11  O   LIG    1        0.267  -2.634   0.376  0.00  0.00    -0.268 OA
BRANCH   9  12
ATOM     12  O   LIG    1        0.002  -0.004   0.002  0.00  0.00    -0.283 OA
ATOM     13  C   LIG    1       -0.017   1.425   0.010  0.00  0.00    +0.226 C 
ENDBRANCH   9  12
ENDBRANCH   1   8
BRANCH   6  14
ATOM     14  S   LIG    1        2.327  -6.206   3.738  0.00  0.00    +0.062 S 
ATOM     15  O   LIG    1        1.928  -6.525   5.064  0.00  0.00    -0.153 OA
ATOM     16  O   LIG    1        1.702  -6.754   2.586  0.00  0.00    -0.153 OA
BRANCH  14  17
ATOM     17  N   LIG    1        3.933  -6.593   3.628  0.00  0.00    -0.177 NA
ATOM     18  C   LIG    1        4.737  -6.639   4.865  0.00  0.00    +0.109 C 
ATOM     19  C   LIG    1        5.690  -7.852   4.888  0.00  0.00    +0.017 C 
ATOM     20  C   LIG    1        4.997  -9.071   4.330  0.00  0.00    +0.001 C 
ATOM     21  C   LIG    1        5.267  -9.164   2.831  0.00  0.00    +0.001 C 
ATOM     22  C   LIG    1        4.348  -8.373   2.000  0.00  0.00    +0.017 C 
ATOM     23  C   LIG    1        4.492  -6.865   2.322  0.00  0.00    +0.109 C 
ENDBRANCH  14  17
ENDBRANCH   6  14
TORSDOF 4
