REMARK  Name = ZINC000058192716
REMARK                            x       y       z     vdW  Elec       q    Type
REMARK                         _______ _______ _______ _____ _____    ______ ____
ROOT
ATOM      1  N   LIG    1       -1.421   0.308  -5.323  0.00  0.00    -0.311 N 
ATOM      2  H   LIG    1       -2.151  -0.016  -4.773  0.00  0.00    +0.149 HD
ATOM      3  C   LIG    1       -1.682   0.972  -6.466  0.00  0.00    +0.215 C 
ATOM      4  O   LIG    1       -0.769   1.377  -7.155  0.00  0.00    -0.276 OA
ENDROOT
BRANCH   1   5
ATOM      5  C   LIG    1       -0.035   0.075  -4.912  0.00  0.00    +0.139 C 
BRANCH   5   6
ATOM      6  C   LIG    1       -0.018  -0.683  -3.609  0.00  0.00    -0.029 A 
ATOM      7  C   LIG    1       -0.021   0.004  -2.412  0.00  0.00    +0.028 A 
ATOM      8  C   LIG    1        0.000  -0.696  -1.211  0.00  0.00    +0.030 A 
ATOM      9  C   LIG    1        0.013  -2.085  -1.221  0.00  0.00    +0.023 A 
ATOM     10  C   LIG    1        0.010  -2.766  -2.422  0.00  0.00    +0.002 A 
ATOM     11  C   LIG    1       -0.005  -2.066  -3.615  0.00  0.00    +0.005 A 
BRANCH   8  12
ATOM     12  N   LIG    1        0.002  -0.004   0.002  0.00  0.00    -0.336 N 
ATOM     13  C   LIG    1        0.024  -0.743   1.267  0.00  0.00    +0.129 C 
ATOM     14  C   LIG    1       -0.018   1.461   0.010  0.00  0.00    +0.129 C 
ENDBRANCH   8  12
ENDBRANCH   5   6
ENDBRANCH   1   5
BRANCH   3  15
ATOM     15  C   LIG    1       -3.108   1.212  -6.890  0.00  0.00    +0.118 C 
BRANCH  15  16
ATOM     16  C   LIG    1       -3.126   1.981  -8.212  0.00  0.00    +0.175 C 
BRANCH  16  17
ATOM     17  S   LIG    1       -4.843   2.270  -8.722  0.00  0.00    -0.028 S 
ATOM     18  O   LIG    1       -5.456   3.135  -7.776  0.00  0.00    -0.174 OA
ATOM     19  O   LIG    1       -5.446   1.016  -9.009  0.00  0.00    -0.174 OA
BRANCH  17  20
ATOM     20  C   LIG    1       -4.624   3.176 -10.277  0.00  0.00    +0.130 C 
ATOM     21  C   LIG    1       -5.994   3.529 -10.894  0.00  0.00    +0.026 C 
ATOM     22  C   LIG    1       -5.844   3.372 -12.417  0.00  0.00    +0.002 C 
ATOM     23  C   LIG    1       -4.388   2.930 -12.674  0.00  0.00    +0.002 C 
ATOM     24  C   LIG    1       -3.950   2.274 -11.341  0.00  0.00    +0.026 C 
ENDBRANCH  17  20
ENDBRANCH  16  17
ENDBRANCH  15  16
ENDBRANCH   3  15
TORSDOF 7
