REMARK  Name = ZINC000000223861
REMARK                            x       y       z     vdW  Elec       q    Type
REMARK                         _______ _______ _______ _____ _____    ______ ____
ROOT
ATOM      1  S   LIG    1        4.823  -3.747  -5.010  0.00  0.00    +0.061 S 
ATOM      2  O   LIG    1        6.145  -3.705  -4.490  0.00  0.00    -0.153 OA
ATOM      3  O   LIG    1        4.069  -4.946  -5.122  0.00  0.00    -0.153 OA
ENDROOT
BRANCH   1   4
ATOM      4  C   LIG    1        4.903  -3.056  -6.629  0.00  0.00    +0.133 A 
ATOM      5  C   LIG    1        6.093  -2.651  -7.136  0.00  0.00    +0.031 A 
ATOM      6  C   LIG    1        6.193  -2.100  -8.413  0.00  0.00    +0.004 A 
ATOM      7  C   LIG    1        5.105  -1.944  -9.206  0.00  0.00    +0.031 A 
ATOM      8  C   LIG    1        3.827  -2.345  -8.740  0.00  0.00    +0.102 A 
ATOM      9  N   LIG    1        2.638  -2.294  -9.317  0.00  0.00    -0.191 NA
ATOM     10  S   LIG    1        1.568  -2.873  -8.347  0.00  0.00    +0.117 S 
ATOM     11  N   LIG    1        2.466  -3.238  -7.131  0.00  0.00    -0.189 NA
ATOM     12  C   LIG    1        3.724  -2.928  -7.405  0.00  0.00    +0.126 A 
ENDBRANCH   1   4
BRANCH   1  13
ATOM     13  N   LIG    1        3.923  -2.713  -4.080  0.00  0.00    -0.186 NA
ATOM     14  H   LIG    1        4.334  -2.247  -3.335  0.00  0.00    +0.148 HD
BRANCH  13  15
ATOM     15  C   LIG    1        2.505  -2.503  -4.381  0.00  0.00    +0.141 C 
BRANCH  15  16
ATOM     16  C   LIG    1        1.835  -1.835  -3.209  0.00  0.00    -0.032 A 
ATOM     17  C   LIG    1        1.271  -2.602  -2.206  0.00  0.00    +0.008 A 
ATOM     18  C   LIG    1        0.661  -1.992  -1.128  0.00  0.00    +0.046 A 
ATOM     19  C   LIG    1        0.606  -0.607  -1.056  0.00  0.00    +0.120 A 
ATOM     20  C   LIG    1        1.173   0.161  -2.062  0.00  0.00    +0.046 A 
ATOM     21  C   LIG    1        1.786  -0.455  -3.136  0.00  0.00    +0.008 A 
BRANCH  19  22
ATOM     22  O   LIG    1        0.002  -0.004   0.002  0.00  0.00    -0.495 OA
ATOM     23  C   LIG    1       -0.017   1.425   0.010  0.00  0.00    +0.277 C 
ENDBRANCH  19  22
ENDBRANCH  15  16
ENDBRANCH  13  15
ENDBRANCH   1  13
TORSDOF 5
