REMARK  Name = ZINC000012979644
REMARK                            x       y       z     vdW  Elec       q    Type
REMARK                         _______ _______ _______ _____ _____    ______ ____
ROOT
ATOM      1  S   LIG    1       -2.031  -6.345  -0.012  0.00  0.00    +0.061 S 
ATOM      2  O   LIG    1       -3.321  -6.594  -0.552  0.00  0.00    -0.153 OA
ATOM      3  O   LIG    1       -0.839  -6.888  -0.565  0.00  0.00    -0.153 OA
ENDROOT
BRANCH   1   4
ATOM      4  N   LIG    1       -2.081  -6.840   1.568  0.00  0.00    -0.174 NA
ATOM      5  C   LIG    1       -3.357  -6.917   2.294  0.00  0.00    +0.125 C 
ATOM      6  C   LIG    1       -3.216  -6.163   3.616  0.00  0.00    +0.101 C 
ATOM      7  N   LIG    1       -2.051  -6.676   4.349  0.00  0.00    -0.300 NA
ATOM      8  C   LIG    1       -0.807  -6.437   3.607  0.00  0.00    +0.101 C 
ATOM      9  C   LIG    1       -0.849  -7.207   2.283  0.00  0.00    +0.125 C 
BRANCH   7  10
ATOM     10  C   LIG    1       -1.980  -6.096   5.697  0.00  0.00    +0.085 C 
BRANCH  10  11
ATOM     11  C   LIG    1       -3.178  -6.573   6.521  0.00  0.00    +0.018 C 
BRANCH  11  12
ATOM     12  C   LIG    1       -3.104  -5.969   7.925  0.00  0.00    -0.016 C 
ATOM     13  C   LIG    1       -4.230  -6.543   8.787  0.00  0.00    +0.007 C 
ATOM     14  C   LIG    1       -3.254  -4.449   7.835  0.00  0.00    +0.007 C 
ENDBRANCH  11  12
ENDBRANCH  10  11
ENDBRANCH   7  10
ENDBRANCH   1   4
BRANCH   1  15
ATOM     15  C   LIG    1       -1.823  -4.596  -0.005  0.00  0.00    +0.106 A 
ATOM     16  C   LIG    1       -2.932  -3.769   0.005  0.00  0.00    +0.032 A 
ATOM     17  C   LIG    1       -2.772  -2.397   0.016  0.00  0.00    +0.047 A 
ATOM     18  C   LIG    1       -1.498  -1.848   0.006  0.00  0.00    +0.121 A 
ATOM     19  C   LIG    1       -0.388  -2.679  -0.003  0.00  0.00    +0.047 A 
ATOM     20  C   LIG    1       -0.553  -4.051  -0.008  0.00  0.00    +0.032 A 
BRANCH  18  21
ATOM     21  O   LIG    1       -1.339  -0.499   0.012  0.00  0.00    -0.492 OA
BRANCH  21  22
ATOM     22  C   LIG    1        0.002  -0.004   0.002  0.00  0.00    +0.225 C 
ATOM     23  C   LIG    1       -0.019   1.526   0.010  0.00  0.00    +0.048 C 
ENDBRANCH  21  22
ENDBRANCH  18  21
ENDBRANCH   1  15
TORSDOF 7
