REMARK  Name = ZINC000082096827
REMARK                            x       y       z     vdW  Elec       q    Type
REMARK                         _______ _______ _______ _____ _____    ______ ____
ROOT
ATOM      1  C   LIG    1       -0.034   1.460   0.012  0.00  0.00    +0.133 C 
ATOM      2  N   LIG    1        0.003  -0.004   0.002  0.00  0.00    -0.292 N 
ATOM      3  C   LIG    1       -0.102  -0.673  -1.163  0.00  0.00    +0.247 C 
ATOM      4  O   LIG    1       -0.178  -1.886  -1.163  0.00  0.00    -0.270 OA
ENDROOT
BRANCH   3   5
ATOM      5  C   LIG    1       -0.124   0.068  -2.441  0.00  0.00    +0.039 A 
ATOM      6  C   LIG    1        0.644   1.231  -2.587  0.00  0.00    +0.015 A 
ATOM      7  C   LIG    1        0.631   1.924  -3.762  0.00  0.00    +0.028 A 
ATOM      8  C   LIG    1       -0.146   1.481  -4.827  0.00  0.00    +0.066 A 
ATOM      9  C   LIG    1       -0.923   0.315  -4.697  0.00  0.00    +0.089 A 
ATOM     10  N   LIG    1       -1.564   0.133  -5.881  0.00  0.00    -0.236 NA
ATOM     11  C   LIG    1       -1.239   1.087  -6.703  0.00  0.00    +0.197 A 
ATOM     12  N   LIG    1       -0.368   1.944  -6.105  0.00  0.00    -0.344 N 
ATOM     13  H   LIG    1        0.025   2.736  -6.505  0.00  0.00    +0.167 HD
ATOM     14  C   LIG    1       -0.903  -0.394  -3.497  0.00  0.00    +0.043 A 
ENDBRANCH   3   5
BRANCH   2  15
ATOM     15  C   LIG    1        0.154  -0.742   1.259  0.00  0.00    +0.206 C 
BRANCH  15  16
ATOM     16  C   LIG    1       -1.206  -1.031   1.838  0.00  0.00    +0.245 A 
ATOM     17  O   LIG    1       -1.890  -0.256   2.685  0.00  0.00    -0.336 OA
ATOM     18  N   LIG    1       -2.953  -0.773   2.956  0.00  0.00    -0.056 NA
ATOM     19  C   LIG    1       -3.066  -1.920   2.337  0.00  0.00    +0.204 A 
ATOM     20  N   LIG    1       -1.938  -2.094   1.611  0.00  0.00    -0.190 NA
BRANCH  19  21
ATOM     21  C   LIG    1       -4.215  -2.855   2.416  0.00  0.00    +0.041 A 
ATOM     22  C   LIG    1       -5.327  -2.548   3.205  0.00  0.00    +0.014 A 
ATOM     23  C   LIG    1       -6.374  -3.453   3.245  0.00  0.00    +0.020 A 
ATOM     24  C   LIG    1       -6.287  -4.621   2.510  0.00  0.00    +0.111 A 
ATOM     25  N   LIG    1       -5.224  -4.883   1.774  0.00  0.00    -0.263 NA
ATOM     26  C   LIG    1       -4.206  -4.050   1.701  0.00  0.00    +0.122 A 
ENDBRANCH  19  21
ENDBRANCH  15  16
ENDBRANCH   2  15
TORSDOF 4
