REMARK  Name = ZINC000095993970
REMARK                            x       y       z     vdW  Elec       q    Type
REMARK                         _______ _______ _______ _____ _____    ______ ____
ROOT
ATOM      1  N   LIG    1       -2.866   0.491   2.129  0.00  0.00    -0.163 NA
ATOM      2  C   LIG    1       -2.375   1.507   3.078  0.00  0.00    +0.111 C 
ATOM      3  C   LIG    1       -3.150   2.798   2.713  0.00  0.00    +0.019 C 
ATOM      4  C   LIG    1       -4.546   2.230   2.345  0.00  0.00    +0.022 C 
ATOM      5  C   LIG    1       -4.202   0.890   1.661  0.00  0.00    +0.088 C 
ENDROOT
BRANCH   1   6
ATOM      6  S   LIG    1       -2.046  -0.869   1.662  0.00  0.00    +0.100 S 
ATOM      7  O   LIG    1       -1.036  -1.084   2.639  0.00  0.00    -0.141 OA
ATOM      8  O   LIG    1       -3.031  -1.839   1.335  0.00  0.00    -0.141 OA
BRANCH   6   9
ATOM      9  N   LIG    1       -1.260  -0.507   0.250  0.00  0.00    -0.170 NA
ATOM     10  C   LIG    1       -1.925  -0.730  -1.036  0.00  0.00    +0.132 C 
BRANCH   9  11
ATOM     11  C   LIG    1        0.100   0.036   0.286  0.00  0.00    +0.107 C 
ATOM     12  C   LIG    1        0.041   1.564   0.218  0.00  0.00    +0.022 C 
ENDBRANCH   9  11
ENDBRANCH   6   9
ENDBRANCH   1   6
BRANCH   5  13
ATOM     13  C   LIG    1       -5.226  -0.175   2.058  0.00  0.00    +0.100 C 
BRANCH  13  14
ATOM     14  C   LIG    1       -6.579   0.201   1.510  0.00  0.00    +0.165 C 
ATOM     15  O   LIG    1       -6.692   1.165   0.783  0.00  0.00    -0.292 OA
BRANCH  14  16
ATOM     16  C   LIG    1       -7.761  -0.601   1.857  0.00  0.00    +0.018 A 
ATOM     17  C   LIG    1       -7.635  -1.710   2.700  0.00  0.00    +0.014 A 
ATOM     18  C   LIG    1       -8.747  -2.457   3.021  0.00  0.00    +0.039 A 
ATOM     19  C   LIG    1       -9.990  -2.112   2.510  0.00  0.00    +0.123 A 
ATOM     20  F   LIG    1      -11.076  -2.849   2.829  0.00  0.00    -0.205 F 
ATOM     21  C   LIG    1      -10.122  -1.013   1.674  0.00  0.00    +0.039 A 
ATOM     22  C   LIG    1       -9.019  -0.255   1.349  0.00  0.00    +0.014 A 
ENDBRANCH  14  16
ENDBRANCH  13  14
ENDBRANCH   5  13
TORSDOF 6
