REMARK  Name = ZINC000058193326
REMARK                            x       y       z     vdW  Elec       q    Type
REMARK                         _______ _______ _______ _____ _____    ______ ____
ROOT
ATOM      1  C   LIG    1       -1.876   0.444  -3.910  0.00  0.00    +0.219 C 
ENDROOT
BRANCH   1   2
ATOM      2  N   LIG    1       -3.283   0.037  -3.957  0.00  0.00    -0.318 N 
ATOM      3  C   LIG    1       -4.332   0.699  -3.400  0.00  0.00    +0.121 A 
ATOM      4  N   LIG    1       -5.441   0.061  -3.638  0.00  0.00    -0.231 NA
ATOM      5  C   LIG    1       -5.177  -1.061  -4.356  0.00  0.00    +0.089 A 
ATOM      6  C   LIG    1       -5.974  -2.087  -4.868  0.00  0.00    +0.030 A 
ATOM      7  C   LIG    1       -5.400  -3.109  -5.570  0.00  0.00    +0.002 A 
ATOM      8  C   LIG    1       -4.030  -3.140  -5.783  0.00  0.00    +0.002 A 
ATOM      9  C   LIG    1       -3.223  -2.137  -5.287  0.00  0.00    +0.028 A 
ATOM     10  C   LIG    1       -3.788  -1.091  -4.571  0.00  0.00    +0.069 A 
BRANCH   3  11
ATOM     11  C   LIG    1       -4.228   1.989  -2.628  0.00  0.00    +0.143 C 
BRANCH  11  12
ATOM     12  S   LIG    1       -3.989   1.623  -0.867  0.00  0.00    -0.156 S 
ATOM     13  C   LIG    1       -3.888   3.272  -0.118  0.00  0.00    +0.084 C 
ENDBRANCH  11  12
ENDBRANCH   3  11
ENDBRANCH   1   2
BRANCH   1  14
ATOM     14  C   LIG    1       -1.221  -0.155  -2.692  0.00  0.00    +0.234 C 
ATOM     15  O   LIG    1       -1.866  -0.853  -1.938  0.00  0.00    -0.274 OA
ATOM     16  N   LIG    1        0.081   0.085  -2.441  0.00  0.00    -0.299 N 
ATOM     17  H   LIG    1        0.597   0.642  -3.044  0.00  0.00    +0.150 HD
BRANCH  16  18
ATOM     18  C   LIG    1        0.718  -0.497  -1.257  0.00  0.00    +0.129 C 
ATOM     19  C   LIG    1        0.630  -2.023  -1.329  0.00  0.00    +0.043 C 
BRANCH  18  20
ATOM     20  C   LIG    1        0.002  -0.004   0.002  0.00  0.00    +0.033 C 
ATOM     21  C   LIG    1       -0.019   1.526   0.010  0.00  0.00    +0.006 C 
ENDBRANCH  18  20
BRANCH  18  22
ATOM     22  C   LIG    1        2.165  -0.079  -1.208  0.00  0.00    +0.330 C 
ATOM     23  O   LIG    1        2.699   0.128  -0.144  0.00  0.00    -0.248 OA
BRANCH  22  24
ATOM     24  O   LIG    1        2.862   0.063  -2.347  0.00  0.00    -0.466 OA
ATOM     25  C   LIG    1        4.250   0.468  -2.224  0.00  0.00    +0.280 C 
ENDBRANCH  22  24
ENDBRANCH  18  22
ENDBRANCH  16  18
ENDBRANCH   1  14
TORSDOF 8
