REMARK  Name = ZINC000058195224
REMARK                            x       y       z     vdW  Elec       q    Type
REMARK                         _______ _______ _______ _____ _____    ______ ____
ROOT
ATOM      1  C   LIG    1        6.262  -0.829  -0.944  0.00  0.00    +0.109 A 
ATOM      2  S   LIG    1        7.242  -0.549   0.490  0.00  0.00    -0.075 S 
ATOM      3  C   LIG    1        8.666  -0.878  -0.397  0.00  0.00    +0.080 A 
ATOM      4  C   LIG    1        8.335  -1.162  -1.676  0.00  0.00    +0.133 A 
ATOM      5  N   LIG    1        7.036  -1.129  -1.943  0.00  0.00    -0.234 NA
ENDROOT
BRANCH   1   6
ATOM      6  C   LIG    1        4.788  -0.733  -1.005  0.00  0.00    +0.007 A 
ATOM      7  C   LIG    1        4.061  -0.396   0.138  0.00  0.00    +0.014 A 
ATOM      8  C   LIG    1        2.687  -0.308   0.078  0.00  0.00    +0.046 A 
ATOM      9  C   LIG    1        2.025  -0.553  -1.118  0.00  0.00    +0.121 A 
ATOM     10  C   LIG    1        2.744  -0.893  -2.256  0.00  0.00    +0.046 A 
ATOM     11  C   LIG    1        4.119  -0.979  -2.205  0.00  0.00    +0.014 A 
BRANCH   9  12
ATOM     12  O   LIG    1        0.671  -0.465  -1.174  0.00  0.00    -0.489 OA
BRANCH  12  13
ATOM     13  C   LIG    1       -0.015  -0.229   0.058  0.00  0.00    +0.167 C 
ATOM     14  C   LIG    1       -0.044   1.273   0.346  0.00  0.00    +0.051 C 
ATOM     15  C   LIG    1       -1.447  -0.756  -0.047  0.00  0.00    +0.051 C 
ENDBRANCH  12  13
ENDBRANCH   9  12
ENDBRANCH   1   6
BRANCH   4  16
ATOM     16  C   LIG    1        9.344  -1.485  -2.700  0.00  0.00    +0.264 C 
ATOM     17  O   LIG    1       10.524  -1.502  -2.407  0.00  0.00    -0.268 OA
ATOM     18  N   LIG    1        8.959  -1.760  -3.962  0.00  0.00    -0.299 N 
ATOM     19  H   LIG    1        8.018  -1.746  -4.196  0.00  0.00    +0.150 HD
BRANCH  18  20
ATOM     20  C   LIG    1        9.962  -2.081  -4.980  0.00  0.00    +0.156 C 
ATOM     21  C   LIG    1       10.298  -3.572  -4.913  0.00  0.00    +0.038 C 
BRANCH  20  22
ATOM     22  C   LIG    1        9.416  -1.750  -6.345  0.00  0.00    +0.231 C 
ATOM     23  O   LIG    1        8.299  -1.292  -6.457  0.00  0.00    -0.274 OA
ATOM     24  N   LIG    1       10.169  -1.964  -7.442  0.00  0.00    -0.328 N 
ATOM     25  H   LIG    1       11.063  -2.331  -7.353  0.00  0.00    +0.145 HD
ATOM     26  H   LIG    1        9.818  -1.751  -8.321  0.00  0.00    +0.145 HD
ENDBRANCH  20  22
ENDBRANCH  18  20
ENDBRANCH   4  16
TORSDOF 6
