REMARK  Name = ZINC000095991630
REMARK                            x       y       z     vdW  Elec       q    Type
REMARK                         _______ _______ _______ _____ _____    ______ ____
ROOT
ATOM      1  C   LIG    1       -2.451   1.108   0.022  0.00  0.00    +0.161 C 
ATOM      2  C   LIG    1       -3.586   1.989   0.594  0.00  0.00    +0.051 C 
ATOM      3  C   LIG    1       -4.786   1.563  -0.280  0.00  0.00    +0.116 C 
ATOM      4  N   LIG    1       -4.203   1.075  -1.535  0.00  0.00    -0.270 N 
ATOM      5  C   LIG    1       -2.892   0.802  -1.393  0.00  0.00    +0.240 C 
ATOM      6  O   LIG    1       -2.171   0.379  -2.271  0.00  0.00    -0.273 OA
ENDROOT
BRANCH   4   7
ATOM      7  C   LIG    1       -4.918   0.910  -2.728  0.00  0.00    +0.038 A 
ATOM      8  C   LIG    1       -6.293   1.101  -2.745  0.00  0.00    +0.046 A 
ATOM      9  C   LIG    1       -6.997   0.943  -3.924  0.00  0.00    +0.078 A 
ATOM     10 CL   LIG    1       -8.715   1.188  -3.949  0.00  0.00    -0.081 Cl
ATOM     11  C   LIG    1       -6.331   0.584  -5.086  0.00  0.00    +0.142 A 
ATOM     12  C   LIG    1       -4.961   0.387  -5.068  0.00  0.00    +0.041 A 
ATOM     13  F   LIG    1       -7.021   0.424  -6.237  0.00  0.00    -0.204 F 
ATOM     14  C   LIG    1       -4.254   0.550  -3.892  0.00  0.00    +0.026 A 
ENDBRANCH   4   7
BRANCH   1  15
ATOM     15  N   LIG    1       -1.184   1.843   0.017  0.00  0.00    -0.304 N 
ATOM     16  H   LIG    1       -1.186   2.813   0.016  0.00  0.00    +0.149 HD
ATOM     17  C   LIG    1       -0.015   1.172   0.015  0.00  0.00    +0.218 C 
ATOM     18  O   LIG    1       -0.013  -0.041   0.016  0.00  0.00    -0.275 OA
BRANCH  17  19
ATOM     19  C   LIG    1        1.288   1.928   0.003  0.00  0.00    +0.132 C 
BRANCH  19  20
ATOM     20  C   LIG    1        2.436   0.951  -0.005  0.00  0.00    -0.021 A 
ATOM     21  C   LIG    1        2.976   0.493   1.187  0.00  0.00    +0.007 A 
ATOM     22  C   LIG    1        4.030  -0.405   1.131  0.00  0.00    +0.020 A 
ATOM     23  C   LIG    1        4.505  -0.811  -0.101  0.00  0.00    +0.111 A 
ATOM     24  N   LIG    1        3.966  -0.355  -1.215  0.00  0.00    -0.263 NA
ATOM     25  C   LIG    1        2.959   0.496  -1.200  0.00  0.00    +0.114 A 
ENDBRANCH  19  20
ENDBRANCH  17  19
ENDBRANCH   1  15
TORSDOF 4
