REMARK  Name = ZINC000025814595
REMARK                            x       y       z     vdW  Elec       q    Type
REMARK                         _______ _______ _______ _____ _____    ______ ____
ROOT
ATOM      1  O   LIG    1        0.998   1.812  -0.304  0.00  0.00    -0.276 OA
ATOM      2  C   LIG    1       -0.031   1.200  -0.113  0.00  0.00    +0.217 C 
ATOM      3  N   LIG    1       -1.181   1.868   0.108  0.00  0.00    -0.290 N 
ENDROOT
BRANCH   3   4
ATOM      4  C   LIG    1       -1.210   3.329   0.006  0.00  0.00    +0.099 C 
ATOM      5  C   LIG    1       -0.231   3.952   1.034  0.00  0.00    +0.188 C 
ATOM      6  S   LIG    1        0.006   5.649   0.380  0.00  0.00    -0.029 S 
ATOM      7  O   LIG    1       -0.968   6.514   0.948  0.00  0.00    -0.174 OA
ATOM      8  O   LIG    1        1.383   5.992   0.447  0.00  0.00    -0.174 OA
ATOM      9  C   LIG    1       -0.445   5.285  -1.355  0.00  0.00    +0.168 C 
ATOM     10  C   LIG    1       -0.728   3.770  -1.387  0.00  0.00    +0.047 C 
ENDBRANCH   3   4
BRANCH   3  11
ATOM     11  C   LIG    1       -2.401   1.133   0.449  0.00  0.00    +0.182 C 
BRANCH  11  12
ATOM     12  C   LIG    1       -2.496   0.983   1.946  0.00  0.00    +0.122 A 
ATOM     13  C   LIG    1       -3.099   1.843   2.786  0.00  0.00    +0.046 A 
ATOM     14  C   LIG    1       -2.950   1.315   4.089  0.00  0.00    +0.041 A 
ATOM     15  C   LIG    1       -2.264   0.165   3.967  0.00  0.00    +0.195 A 
ATOM     16  O   LIG    1       -1.996  -0.034   2.666  0.00  0.00    -0.466 OA
ENDBRANCH  11  12
ENDBRANCH   3  11
BRANCH   2  17
ATOM     17  C   LIG    1       -0.024  -0.307  -0.116  0.00  0.00    +0.100 C 
BRANCH  17  18
ATOM     18  C   LIG    1        1.394  -0.810  -0.394  0.00  0.00    +0.044 C 
BRANCH  18  19
ATOM     19  C   LIG    1        1.401  -2.317  -0.397  0.00  0.00    -0.047 A 
ATOM     20  C   LIG    1        1.629  -3.009   0.777  0.00  0.00    +0.003 A 
ATOM     21  C   LIG    1        1.636  -4.391   0.775  0.00  0.00    +0.000 A 
ATOM     22  C   LIG    1        1.414  -5.082  -0.402  0.00  0.00    +0.000 A 
ATOM     23  C   LIG    1        1.185  -4.389  -1.577  0.00  0.00    +0.000 A 
ATOM     24  C   LIG    1        1.174  -3.007  -1.573  0.00  0.00    +0.003 A 
ENDBRANCH  18  19
ENDBRANCH  17  18
ENDBRANCH   2  17
TORSDOF 6
