REMARK  Name = ZINC000058177713
REMARK                            x       y       z     vdW  Elec       q    Type
REMARK                         _______ _______ _______ _____ _____    ______ ____
ROOT
ATOM      1  C   LIG    1       -4.672  -4.534  -0.005  0.00  0.00    +0.165 C 
ENDROOT
BRANCH   1   2
ATOM      2  C   LIG    1       -5.079  -4.486   1.445  0.00  0.00    +0.236 C 
ATOM      3  O   LIG    1       -4.255  -4.685   2.313  0.00  0.00    -0.274 OA
ATOM      4  N   LIG    1       -6.358  -4.223   1.778  0.00  0.00    -0.300 N 
ATOM      5  C   LIG    1       -6.869  -4.043   3.150  0.00  0.00    +0.108 C 
ATOM      6  C   LIG    1       -8.149  -3.183   2.984  0.00  0.00    +0.020 C 
ATOM      7  C   LIG    1       -8.736  -3.753   1.666  0.00  0.00    +0.020 C 
ATOM      8  C   LIG    1       -7.475  -4.072   0.835  0.00  0.00    +0.108 C 
ENDBRANCH   1   2
BRANCH   1   9
ATOM      9  N   LIG    1       -3.252  -4.197  -0.125  0.00  0.00    -0.287 N 
ATOM     10  H   LIG    1       -2.587  -4.902  -0.156  0.00  0.00    +0.151 HD
ATOM     11  C   LIG    1       -2.869  -2.906  -0.194  0.00  0.00    +0.306 C 
ATOM     12  O   LIG    1       -3.702  -2.022  -0.156  0.00  0.00    -0.252 OA
ATOM     13  N   LIG    1       -1.562  -2.596  -0.304  0.00  0.00    -0.251 N 
ATOM     14  H   LIG    1       -0.897  -3.302  -0.335  0.00  0.00    +0.158 HD
BRANCH  13  15
ATOM     15  C   LIG    1       -1.165  -1.261  -0.375  0.00  0.00    +0.169 A 
ATOM     16  C   LIG    1       -2.008  -0.118  -0.344  0.00  0.00    +0.091 A 
ATOM     17  C   LIG    1       -1.150   0.922  -0.443  0.00  0.00    +0.136 A 
ATOM     18  C   LIG    1       -1.509   2.386  -0.460  0.00  0.00    +0.089 C 
ATOM     19  O   LIG    1        0.081   0.398  -0.529  0.00  0.00    -0.358 OA
ATOM     20  N   LIG    1        0.057  -0.810  -0.484  0.00  0.00    -0.063 NA
ENDBRANCH  13  15
ENDBRANCH   1   9
BRANCH   1  21
ATOM     21  C   LIG    1       -4.911  -5.941  -0.556  0.00  0.00    +0.067 C 
BRANCH  21  22
ATOM     22  C   LIG    1       -4.631  -5.955  -2.037  0.00  0.00    -0.045 A 
ATOM     23  C   LIG    1       -3.359  -6.241  -2.497  0.00  0.00    +0.004 A 
ATOM     24  C   LIG    1       -3.103  -6.258  -3.855  0.00  0.00    +0.000 A 
ATOM     25  C   LIG    1       -4.117  -5.980  -4.753  0.00  0.00    +0.000 A 
ATOM     26  C   LIG    1       -5.387  -5.689  -4.293  0.00  0.00    +0.000 A 
ATOM     27  C   LIG    1       -5.644  -5.676  -2.934  0.00  0.00    +0.004 A 
ENDBRANCH  21  22
ENDBRANCH   1  21
TORSDOF 5
