REMARK  Name = ZINC000095992239
REMARK                            x       y       z     vdW  Elec       q    Type
REMARK                         _______ _______ _______ _____ _____    ______ ____
ROOT
ATOM      1  C   LIG    1       -1.278   0.277   2.310  0.00  0.00    +0.265 C 
ATOM      2  O   LIG    1       -2.263  -0.031   2.954  0.00  0.00    -0.268 OA
ATOM      3  N   LIG    1       -0.289   0.986   2.889  0.00  0.00    -0.303 N 
ATOM      4  H   LIG    1        0.458   1.300   2.356  0.00  0.00    +0.150 HD
ENDROOT
BRANCH   3   5
ATOM      5  C   LIG    1       -0.342   1.282   4.322  0.00  0.00    +0.107 C 
ATOM      6  C   LIG    1        1.068   1.400   4.870  0.00  0.00    +0.015 A 
ATOM      7  C   LIG    1        1.444   0.670   5.975  0.00  0.00    +0.012 A 
ATOM      8  C   LIG    1        2.745   0.752   6.441  0.00  0.00    +0.039 A 
ATOM      9  C   LIG    1        3.661   1.568   5.800  0.00  0.00    +0.127 A 
ATOM     10  F   LIG    1        4.933   1.639   6.251  0.00  0.00    -0.205 F 
ATOM     11  C   LIG    1        3.279   2.311   4.696  0.00  0.00    +0.084 A 
ATOM     12  C   LIG    1        1.971   2.233   4.236  0.00  0.00    +0.128 A 
ATOM     13  O   LIG    1        1.586   2.978   3.163  0.00  0.00    -0.492 OA
ATOM     14  C   LIG    1        0.696   4.062   3.450  0.00  0.00    +0.229 C 
ATOM     15  C   LIG    1       -0.745   3.596   3.438  0.00  0.00    +0.043 C 
ATOM     16  C   LIG    1       -1.071   2.606   4.546  0.00  0.00    +0.030 C 
ENDBRANCH   3   5
BRANCH   1  17
ATOM     17  C   LIG    1       -1.167  -0.125   0.899  0.00  0.00    +0.153 A 
ATOM     18  N   LIG    1       -0.576  -1.256   0.412  0.00  0.00    -0.260 N 
ATOM     19  C   LIG    1        0.061  -2.293   1.228  0.00  0.00    +0.173 C 
ATOM     20  N   LIG    1       -0.668  -1.275  -0.869  0.00  0.00    -0.177 NA
ATOM     21  C   LIG    1       -1.291  -0.211  -1.308  0.00  0.00    +0.168 A 
ATOM     22  C   LIG    1       -1.634   0.571  -0.203  0.00  0.00    +0.176 A 
BRANCH  22  23
ATOM     23  N   LIG    1       -2.349   1.867  -0.208  0.00  0.00    +0.060 N 
ATOM     24  O   LIG    1       -2.581   2.439   0.843  0.00  0.00    -0.126 OA
ATOM     25  O   LIG    1       -2.706   2.362  -1.262  0.00  0.00    -0.126 OA
ENDBRANCH  22  23
ENDBRANCH   1  17
TORSDOF 3
