REMARK  Name = ZINC000009549362
REMARK                            x       y       z     vdW  Elec       q    Type
REMARK                         _______ _______ _______ _____ _____    ______ ____
ROOT
ATOM      1  C   LIG    1       -1.183  -4.175  -2.521  0.00  0.00    +0.235 C 
ATOM      2  O   LIG    1       -0.259  -3.421  -2.737  0.00  0.00    -0.274 OA
ATOM      3  N   LIG    1       -1.186  -5.410  -3.060  0.00  0.00    -0.284 N 
ATOM      4  H   LIG    1       -1.891  -6.037  -2.834  0.00  0.00    +0.155 HD
ENDROOT
BRANCH   3   5
ATOM      5  C   LIG    1       -0.172  -5.788  -3.947  0.00  0.00    +0.034 A 
ATOM      6  C   LIG    1        1.123  -5.321  -3.764  0.00  0.00    +0.035 A 
ATOM      7  C   LIG    1        2.123  -5.702  -4.637  0.00  0.00    +0.057 A 
ATOM      8  C   LIG    1        1.833  -6.537  -5.701  0.00  0.00    +0.012 A 
ATOM      9  C   LIG    1        0.543  -6.998  -5.890  0.00  0.00    +0.002 A 
ATOM     10  C   LIG    1       -0.460  -6.627  -5.016  0.00  0.00    +0.023 A 
BRANCH   7  11
ATOM     11  C   LIG    1        3.530  -5.201  -4.435  0.00  0.00    +0.417 C 
ATOM     12  F   LIG    1        4.000  -5.623  -3.187  0.00  0.00    -0.166 F 
ATOM     13  F   LIG    1        3.539  -3.803  -4.489  0.00  0.00    -0.166 F 
ATOM     14  F   LIG    1        4.356  -5.712  -5.442  0.00  0.00    -0.166 F 
ENDBRANCH   7  11
ENDBRANCH   3   5
BRANCH   1  15
ATOM     15  C   LIG    1       -2.329  -3.731  -1.648  0.00  0.00    +0.214 C 
BRANCH  15  16
ATOM     16  N   LIG    1       -2.091  -2.361  -1.189  0.00  0.00    -0.216 N 
ATOM     17  C   LIG    1       -1.436  -2.046  -0.049  0.00  0.00    +0.244 C 
ATOM     18  O   LIG    1       -0.952  -2.815   0.753  0.00  0.00    -0.273 OA
ATOM     19  C   LIG    1       -1.431  -0.532   0.010  0.00  0.00    +0.164 C 
ATOM     20  N   LIG    1       -2.151  -0.131  -1.212  0.00  0.00    -0.287 N 
ATOM     21  H   LIG    1       -2.339   0.774  -1.502  0.00  0.00    +0.151 HD
ATOM     22  C   LIG    1       -2.495  -1.267  -1.845  0.00  0.00    +0.310 C 
ATOM     23  O   LIG    1       -3.107  -1.296  -2.895  0.00  0.00    -0.252 OA
BRANCH  19  24
ATOM     24  C   LIG    1        0.003   0.003  -0.010  0.00  0.00    +0.012 C 
ATOM     25  C   LIG    1        0.752  -0.500   1.225  0.00  0.00    +0.009 C 
ATOM     26  C   LIG    1       -0.023   1.533  -0.003  0.00  0.00    +0.009 C 
ENDBRANCH  19  24
ENDBRANCH  15  16
ENDBRANCH   1  15
TORSDOF 5
