REMARK  Name = ZINC000009572727
REMARK                            x       y       z     vdW  Elec       q    Type
REMARK                         _______ _______ _______ _____ _____    ______ ____
ROOT
ATOM      1  N   LIG    1        4.169  -2.858  -4.053  0.00  0.00    -0.216 N 
ATOM      2  H   LIG    1        4.696  -2.047  -4.124  0.00  0.00    +0.174 HD
ENDROOT
BRANCH   1   3
ATOM      3  C   LIG    1        4.424  -3.770  -3.023  0.00  0.00    +0.048 A 
ATOM      4  C   LIG    1        3.561  -3.857  -1.939  0.00  0.00    +0.026 A 
ATOM      5  C   LIG    1        3.809  -4.755  -0.922  0.00  0.00    +0.025 A 
ATOM      6  C   LIG    1        4.929  -5.583  -0.975  0.00  0.00    +0.040 A 
ATOM      7  N   LIG    1        5.387  -6.557  -0.083  0.00  0.00    -0.274 N 
ATOM      8  C   LIG    1        4.708  -6.902   1.169  0.00  0.00    +0.138 C 
ATOM      9  C   LIG    1        6.521  -7.140  -0.506  0.00  0.00    +0.224 C 
ATOM     10  O   LIG    1        7.138  -8.013   0.066  0.00  0.00    -0.275 OA
ATOM     11  C   LIG    1        6.884  -6.501  -1.829  0.00  0.00    +0.133 C 
ATOM     12  C   LIG    1        5.786  -5.489  -2.064  0.00  0.00    -0.015 A 
ATOM     13  C   LIG    1        5.539  -4.598  -3.083  0.00  0.00    +0.030 A 
ENDBRANCH   1   3
BRANCH   1  14
ATOM     14  S   LIG    1        2.969  -3.165  -5.152  0.00  0.00    +0.072 S 
ATOM     15  O   LIG    1        1.809  -3.493  -4.399  0.00  0.00    -0.150 OA
ATOM     16  O   LIG    1        3.007  -2.102  -6.095  0.00  0.00    -0.150 OA
BRANCH  14  17
ATOM     17  C   LIG    1        3.423  -4.624  -6.028  0.00  0.00    +0.109 A 
ATOM     18  C   LIG    1        2.935  -5.853  -5.622  0.00  0.00    +0.032 A 
ATOM     19  C   LIG    1        3.290  -6.999  -6.308  0.00  0.00    +0.047 A 
ATOM     20  C   LIG    1        4.136  -6.916  -7.404  0.00  0.00    +0.120 A 
ATOM     21  C   LIG    1        4.629  -5.683  -7.805  0.00  0.00    +0.047 A 
ATOM     22  C   LIG    1        4.267  -4.539  -7.120  0.00  0.00    +0.032 A 
BRANCH  20  23
ATOM     23  O   LIG    1        4.487  -8.042  -8.079  0.00  0.00    -0.495 OA
ATOM     24  C   LIG    1        3.942  -9.277  -7.610  0.00  0.00    +0.277 C 
ENDBRANCH  20  23
ENDBRANCH  14  17
ENDBRANCH   1  14
TORSDOF 4
