REMARK  Name = ZINC000025704991
REMARK                            x       y       z     vdW  Elec       q    Type
REMARK                         _______ _______ _______ _____ _____    ______ ____
ROOT
ATOM      1  N   LIG    1        1.444   2.560   3.265  0.00  0.00    -0.335 N 
ATOM      2  H   LIG    1        1.907   2.068   3.962  0.00  0.00    +0.147 HD
ENDROOT
BRANCH   1   3
ATOM      3  C   LIG    1        1.545   3.952   3.210  0.00  0.00    +0.028 A 
ATOM      4  C   LIG    1        2.306   4.631   4.151  0.00  0.00    +0.034 A 
ATOM      5  C   LIG    1        2.407   6.019   4.088  0.00  0.00    +0.022 A 
ATOM      6  C   LIG    1        1.733   6.719   3.086  0.00  0.00    +0.012 A 
ATOM      7  C   LIG    1        0.974   6.036   2.158  0.00  0.00    +0.002 A 
ATOM      8  C   LIG    1        0.877   4.658   2.216  0.00  0.00    +0.023 A 
BRANCH   5   9
ATOM      9  C   LIG    1        3.223   6.750   5.084  0.00  0.00    +0.182 A 
ATOM     10  N   LIG    1        4.182   6.222   5.883  0.00  0.00    -0.228 N 
ATOM     11  N   LIG    1        4.664   7.302   6.643  0.00  0.00    -0.044 NA
ATOM     12  N   LIG    1        3.997   8.343   6.279  0.00  0.00    -0.023 NA
ATOM     13  C   LIG    1        4.628   4.827   5.937  0.00  0.00    +0.176 C 
ATOM     14  N   LIG    1        3.149   8.034   5.365  0.00  0.00    -0.108 NA
ENDBRANCH   5   9
ENDBRANCH   1   3
BRANCH   1  15
ATOM     15  C   LIG    1        0.641   1.843   2.272  0.00  0.00    +0.197 C 
BRANCH  15  16
ATOM     16  C   LIG    1        0.697   0.364   2.553  0.00  0.00    +0.233 C 
ATOM     17  O   LIG    1        1.278  -0.045   3.535  0.00  0.00    -0.274 OA
ATOM     18  N   LIG    1        0.102  -0.505   1.711  0.00  0.00    -0.295 N 
ATOM     19  C   LIG    1        0.059  -1.940   2.023  0.00  0.00    +0.073 C 
ATOM     20  C   LIG    1        0.897  -2.218   3.273  0.00  0.00    +0.028 C 
ATOM     21  C   LIG    1        0.631  -2.723   0.837  0.00  0.00    +0.022 C 
ATOM     22  C   LIG    1       -0.123  -2.334  -0.436  0.00  0.00    +0.004 C 
ATOM     23  C   LIG    1        0.067  -0.840  -0.708  0.00  0.00    +0.022 C 
ATOM     24  C   LIG    1       -0.511  -0.035   0.461  0.00  0.00    +0.073 C 
ATOM     25  C   LIG    1       -2.026  -0.240   0.525  0.00  0.00    +0.028 C 
ENDBRANCH  15  16
ENDBRANCH   1  15
TORSDOF 4
