REMARK  Name = ZINC000012974104
REMARK                            x       y       z     vdW  Elec       q    Type
REMARK                         _______ _______ _______ _____ _____    ______ ____
ROOT
ATOM      1  N   LIG    1       -5.441  -2.831  -1.341  0.00  0.00    -0.307 N 
ATOM      2  C   LIG    1       -6.605  -3.466  -1.582  0.00  0.00    +0.245 C 
ATOM      3  O   LIG    1       -7.244  -3.933  -0.660  0.00  0.00    -0.270 OA
ATOM      4  H   LIG    1       -4.895  -2.523  -2.081  0.00  0.00    +0.149 HD
ENDROOT
BRANCH   2   5
ATOM      5  C   LIG    1       -7.106  -3.595  -2.972  0.00  0.00    +0.051 A 
ATOM      6  C   LIG    1       -8.433  -4.169  -3.243  0.00  0.00    +0.011 A 
ATOM      7  C   LIG    1       -9.254  -4.594  -2.194  0.00  0.00    +0.011 A 
ATOM      8  C   LIG    1      -10.485  -5.120  -2.466  0.00  0.00    +0.001 A 
ATOM      9  C   LIG    1      -10.931  -5.232  -3.775  0.00  0.00    +0.002 A 
ATOM     10  C   LIG    1      -10.142  -4.814  -4.824  0.00  0.00    +0.026 A 
ATOM     11  C   LIG    1       -8.883  -4.274  -4.571  0.00  0.00    +0.050 A 
ATOM     12  N   LIG    1       -8.082  -3.853  -5.611  0.00  0.00    -0.322 N 
ATOM     13  C   LIG    1       -6.864  -3.329  -5.387  0.00  0.00    +0.250 A 
ATOM     14  O   LIG    1       -6.184  -2.967  -6.331  0.00  0.00    -0.268 OA
ATOM     15  H   LIG    1       -8.404  -3.935  -6.522  0.00  0.00    +0.169 HD
ATOM     16  C   LIG    1       -6.343  -3.189  -4.029  0.00  0.00    +0.083 A 
ENDBRANCH   2   5
BRANCH   1  17
ATOM     17  C   LIG    1       -5.001  -2.606   0.038  0.00  0.00    +0.140 C 
BRANCH  17  18
ATOM     18  C   LIG    1       -3.680  -1.881   0.032  0.00  0.00    -0.027 A 
ATOM     19  C   LIG    1       -3.651  -0.499   0.041  0.00  0.00    +0.009 A 
ATOM     20  C   LIG    1       -2.441   0.170   0.035  0.00  0.00    +0.050 A 
ATOM     21  C   LIG    1       -1.254  -0.545   0.021  0.00  0.00    +0.162 A 
ATOM     22  C   LIG    1       -1.283  -1.936   0.005  0.00  0.00    +0.162 A 
ATOM     23  C   LIG    1       -2.499  -2.600   0.016  0.00  0.00    +0.054 A 
BRANCH  21  24
ATOM     24  O   LIG    1       -0.063   0.112   0.015  0.00  0.00    -0.491 OA
ATOM     25  C   LIG    1       -0.110   1.540   0.031  0.00  0.00    +0.277 C 
ENDBRANCH  21  24
BRANCH  22  26
ATOM     26  O   LIG    1       -0.121  -2.642  -0.010  0.00  0.00    -0.491 OA
ATOM     27  C   LIG    1       -0.228  -4.067  -0.014  0.00  0.00    +0.277 C 
ENDBRANCH  22  26
ENDBRANCH  17  18
ENDBRANCH   1  17
TORSDOF 5
