REMARK  Name = ZINC000000236484
REMARK                            x       y       z     vdW  Elec       q    Type
REMARK                         _______ _______ _______ _____ _____    ______ ____
ROOT
ATOM      1  O   LIG    1       -1.186   1.859   0.018  0.00  0.00    -0.439 OA
ENDROOT
BRANCH   1   2
ATOM      2  C   LIG    1       -0.014   1.204   0.009  0.00  0.00    +0.347 C 
ATOM      3  O   LIG    1        0.002  -0.004   0.002  0.00  0.00    -0.247 OA
BRANCH   2   4
ATOM      4  C   LIG    1        1.280   1.975   0.000  0.00  0.00    +0.349 C 
BRANCH   4   5
ATOM      5  O   LIG    1        2.379   1.062  -0.015  0.00  0.00    -0.481 OA
BRANCH   5   6
ATOM      6  C   LIG    1        3.628   1.598  -0.024  0.00  0.00    +0.121 A 
ATOM      7  C   LIG    1        3.792   2.975  -0.012  0.00  0.00    +0.047 A 
ATOM      8  C   LIG    1        5.062   3.519  -0.022  0.00  0.00    +0.023 A 
ATOM      9  C   LIG    1        6.170   2.690  -0.043  0.00  0.00    +0.041 A 
ATOM     10  C   LIG    1        6.008   1.316  -0.054  0.00  0.00    +0.023 A 
ATOM     11 CL   LIG    1        7.765   3.376  -0.055  0.00  0.00    -0.084 Cl
ATOM     12  C   LIG    1        4.740   0.769  -0.039  0.00  0.00    +0.047 A 
ENDBRANCH   5   6
ENDBRANCH   4   5
ENDBRANCH   2   4
ENDBRANCH   1   2
BRANCH   1  13
ATOM     13  C   LIG    1       -2.393   1.052   0.019  0.00  0.00    +0.383 C 
BRANCH  13  14
ATOM     14  N   LIG    1       -2.659   0.574   1.378  0.00  0.00    -0.174 N 
ATOM     15  C   LIG    1       -3.423   1.312   2.217  0.00  0.00    +0.281 A 
ATOM     16  C   LIG    1       -3.657   0.776   3.567  0.00  0.00    +0.068 A 
ATOM     17  C   LIG    1       -4.433   1.459   4.501  0.00  0.00    +0.015 A 
ATOM     18  C   LIG    1       -4.619   0.919   5.755  0.00  0.00    +0.001 A 
ATOM     19  C   LIG    1       -4.041  -0.297   6.092  0.00  0.00    +0.002 A 
ATOM     20  C   LIG    1       -3.271  -0.988   5.184  0.00  0.00    +0.030 A 
ATOM     21  C   LIG    1       -3.067  -0.462   3.906  0.00  0.00    +0.100 A 
ATOM     22  N   LIG    1       -2.314  -1.114   2.986  0.00  0.00    -0.131 NA
ATOM     23  O   LIG    1       -3.901   2.376   1.867  0.00  0.00    -0.265 OA
ATOM     24  N   LIG    1       -2.119  -0.641   1.808  0.00  0.00    -0.059 NA
ENDBRANCH  13  14
ENDBRANCH   1  13
TORSDOF 6
