REMARK  Name = ZINC000074551793
REMARK                            x       y       z     vdW  Elec       q    Type
REMARK                         _______ _______ _______ _____ _____    ______ ____
ROOT
ATOM      1  C   LIG    1        0.230  -2.768   2.095  0.00  0.00    +0.029 C 
ATOM      2  C   LIG    1       -0.294  -1.336   1.974  0.00  0.00    +0.084 C 
ATOM      3  N   LIG    1        0.650  -0.512   1.214  0.00  0.00    -0.252 N 
ATOM      4  C   LIG    1        1.925  -0.263   1.573  0.00  0.00    +0.307 C 
ATOM      5  N   LIG    1        2.387  -0.697   2.763  0.00  0.00    -0.290 N 
ATOM      6  H   LIG    1        1.825  -1.248   3.330  0.00  0.00    +0.151 HD
ATOM      7  O   LIG    1        2.659   0.352   0.824  0.00  0.00    -0.252 OA
ATOM      8  C   LIG    1        0.032  -0.021   0.058  0.00  0.00    +0.041 A 
ATOM      9  C   LIG    1       -1.284  -0.447  -0.038  0.00  0.00    -0.024 A 
ATOM     10  C   LIG    1       -2.067  -0.068  -1.112  0.00  0.00    +0.005 A 
ATOM     11  C   LIG    1       -1.542   0.742  -2.102  0.00  0.00    +0.000 A 
ATOM     12  C   LIG    1       -0.231   1.172  -2.015  0.00  0.00    +0.002 A 
ATOM     13  C   LIG    1        0.554   0.796  -0.946  0.00  0.00    +0.024 A 
ATOM     14  C   LIG    1       -1.599  -1.311   1.162  0.00  0.00    +0.059 C 
ENDROOT
BRANCH   5  15
ATOM     15  C   LIG    1        3.738  -0.335   3.200  0.00  0.00    +0.201 C 
BRANCH  15  16
ATOM     16  C   LIG    1        4.007  -0.941   4.553  0.00  0.00    +0.233 C 
ATOM     17  N   LIG    1        5.195  -0.741   5.157  0.00  0.00    -0.295 N 
ATOM     18  C   LIG    1        6.225   0.066   4.498  0.00  0.00    +0.132 C 
ATOM     19  O   LIG    1        3.155  -1.609   5.099  0.00  0.00    -0.274 OA
BRANCH  17  20
ATOM     20  C   LIG    1        5.457  -1.330   6.473  0.00  0.00    +0.220 C 
BRANCH  20  21
ATOM     21  C   LIG    1        6.070  -2.720   6.296  0.00  0.00    +0.405 C 
ATOM     22  F   LIG    1        6.320  -3.283   7.553  0.00  0.00    -0.169 F 
ATOM     23  F   LIG    1        5.181  -3.536   5.588  0.00  0.00    -0.169 F 
ATOM     24  F   LIG    1        7.271  -2.613   5.586  0.00  0.00    -0.169 F 
ENDBRANCH  20  21
ENDBRANCH  17  20
ENDBRANCH  15  16
ENDBRANCH   5  15
TORSDOF 4
