REMARK  Name = ZINC000000238776
REMARK                            x       y       z     vdW  Elec       q    Type
REMARK                         _______ _______ _______ _____ _____    ______ ____
ROOT
ATOM      1  C   LIG    1       -0.136   1.455   0.490  0.00  0.00    +0.067 C 
ATOM      2  C   LIG    1       -0.049  -0.025   0.217  0.00  0.00    +0.060 A 
ATOM      3  N   LIG    1        1.086  -0.790   0.295  0.00  0.00    -0.282 N 
ATOM      4  C   LIG    1        2.421  -0.311   0.661  0.00  0.00    +0.171 C 
ATOM      5  N   LIG    1        0.747  -2.110  -0.030  0.00  0.00    -0.216 N 
ATOM      6  C   LIG    1       -0.573  -2.140  -0.307  0.00  0.00    +0.294 A 
ATOM      7  O   LIG    1       -1.216  -3.121  -0.633  0.00  0.00    -0.264 OA
ATOM      8  C   LIG    1       -1.075  -0.822  -0.151  0.00  0.00    +0.131 A 
ENDROOT
BRANCH   8   9
ATOM      9  N   LIG    1       -2.412  -0.416  -0.347  0.00  0.00    -0.195 N 
ATOM     10  C   LIG    1       -3.463  -0.901   0.338  0.00  0.00    +0.258 C 
ATOM     11  O   LIG    1       -3.412  -1.745   1.210  0.00  0.00    -0.269 OA
ATOM     12  C   LIG    1       -4.689  -0.233  -0.145  0.00  0.00    +0.050 A 
ATOM     13  C   LIG    1       -6.032  -0.321   0.182  0.00  0.00    +0.014 A 
ATOM     14  C   LIG    1       -6.956   0.467  -0.487  0.00  0.00    +0.001 A 
ATOM     15  C   LIG    1       -6.546   1.339  -1.478  0.00  0.00    +0.001 A 
ATOM     16  C   LIG    1       -5.205   1.437  -1.817  0.00  0.00    +0.014 A 
ATOM     17  C   LIG    1       -4.271   0.657  -1.156  0.00  0.00    +0.050 A 
ATOM     18  C   LIG    1       -2.804   0.502  -1.249  0.00  0.00    +0.258 C 
ATOM     19  O   LIG    1       -2.074   1.104  -2.011  0.00  0.00    -0.269 OA
ENDBRANCH   8   9
BRANCH   5  20
ATOM     20  C   LIG    1        1.621  -3.200  -0.065  0.00  0.00    +0.067 A 
ATOM     21  C   LIG    1        1.277  -4.389   0.566  0.00  0.00    +0.028 A 
ATOM     22  C   LIG    1        2.141  -5.466   0.524  0.00  0.00    +0.002 A 
ATOM     23  C   LIG    1        3.352  -5.358  -0.135  0.00  0.00    +0.000 A 
ATOM     24  C   LIG    1        3.700  -4.174  -0.759  0.00  0.00    +0.002 A 
ATOM     25  C   LIG    1        2.838  -3.095  -0.726  0.00  0.00    +0.028 A 
ENDBRANCH   5  20
TORSDOF 2
