REMARK  Name = ZINC000095991235
REMARK                            x       y       z     vdW  Elec       q    Type
REMARK                         _______ _______ _______ _____ _____    ______ ____
ROOT
ATOM      1  C   LIG    1       -0.018   1.503   0.010  0.00  0.00    +0.066 C 
ATOM      2  C   LIG    1        0.002  -0.004   0.002  0.00  0.00    +0.043 A 
ATOM      3  N   LIG    1        0.024  -0.817   1.091  0.00  0.00    -0.236 N 
ATOM      4  N   LIG    1        0.034  -2.048   0.722  0.00  0.00    -0.161 NA
ATOM      5  C   LIG    1        0.029  -2.127  -0.594  0.00  0.00    +0.148 A 
ATOM      6  C   LIG    1        0.009  -0.802  -1.091  0.00  0.00    +0.058 A 
ENDROOT
BRANCH   3   7
ATOM      7  C   LIG    1        0.025  -0.377   2.421  0.00  0.00    +0.067 A 
ATOM      8  C   LIG    1       -0.654  -1.099   3.393  0.00  0.00    +0.047 A 
ATOM      9  C   LIG    1       -0.646  -0.666   4.705  0.00  0.00    +0.043 A 
ATOM     10 CL   LIG    1       -1.488  -1.573   5.923  0.00  0.00    -0.083 Cl
ATOM     11  C   LIG    1        0.028   0.493   5.048  0.00  0.00    +0.020 A 
ATOM     12  C   LIG    1        0.700   1.217   4.081  0.00  0.00    +0.003 A 
ATOM     13  C   LIG    1        0.700   0.785   2.769  0.00  0.00    +0.028 A 
ENDBRANCH   3   7
BRANCH   5  14
ATOM     14  C   LIG    1        0.043  -3.365  -1.398  0.00  0.00    +0.270 C 
ATOM     15  N   LIG    1        0.062  -4.566  -0.786  0.00  0.00    -0.261 N 
ATOM     16  H   LIG    1        0.067  -4.616   0.183  0.00  0.00    +0.157 HD
ATOM     17  O   LIG    1        0.038  -3.302  -2.612  0.00  0.00    -0.268 OA
BRANCH  15  18
ATOM     18  C   LIG    1        0.076  -5.733  -1.544  0.00  0.00    +0.191 A 
ATOM     19  C   LIG    1        0.097  -7.045  -0.888  0.00  0.00    +0.291 A 
ATOM     20  O   LIG    1        0.098  -7.134   0.328  0.00  0.00    -0.264 OA
ATOM     21  N   LIG    1        0.103  -8.152  -1.663  0.00  0.00    -0.314 N 
ATOM     22  C   LIG    1        0.118  -9.484  -1.055  0.00  0.00    +0.152 C 
ATOM     23  C   LIG    1        0.102  -8.012  -3.019  0.00  0.00    +0.108 A 
ATOM     24  C   LIG    1        0.088  -6.787  -3.589  0.00  0.00    +0.131 A 
ATOM     25  N   LIG    1        0.075  -5.675  -2.858  0.00  0.00    -0.234 NA
ENDBRANCH  15  18
ENDBRANCH   5  14
TORSDOF 3
