REMARK  Name = ZINC000082161876
REMARK                            x       y       z     vdW  Elec       q    Type
REMARK                         _______ _______ _______ _____ _____    ______ ____
ROOT
ATOM      1  O   LIG    1        0.002  -0.004   0.002  0.00  0.00    -0.275 OA
ATOM      2  C   LIG    1       -0.014   1.209   0.009  0.00  0.00    +0.221 C 
ATOM      3  N   LIG    1       -1.191   1.867   0.018  0.00  0.00    -0.301 N 
ATOM      4  C   LIG    1       -1.227   3.335   0.020  0.00  0.00    +0.108 C 
ATOM      5  C   LIG    1       -2.107   3.808  -1.141  0.00  0.00    +0.030 C 
ATOM      6  C   LIG    1       -3.483   3.146  -1.035  0.00  0.00    +0.058 C 
ATOM      7  C   LIG    1       -3.328   1.627  -1.135  0.00  0.00    +0.030 C 
ATOM      8  C   LIG    1       -2.461   1.129   0.020  0.00  0.00    +0.108 C 
ENDROOT
BRANCH   6   9
ATOM      9  C   LIG    1       -4.363   3.635  -2.156  0.00  0.00    +0.113 A 
ATOM     10  N   LIG    1       -5.535   4.290  -2.009  0.00  0.00    -0.334 N 
ATOM     11  C   LIG    1       -6.011   4.557  -3.264  0.00  0.00    +0.107 A 
ATOM     12  C   LIG    1       -5.119   4.048  -4.135  0.00  0.00    +0.130 A 
ATOM     13  N   LIG    1       -4.122   3.491  -3.431  0.00  0.00    -0.240 NA
BRANCH  10  14
ATOM     14  C   LIG    1       -6.173   4.655  -0.741  0.00  0.00    +0.126 C 
BRANCH  14  15
ATOM     15  C   LIG    1       -5.591   5.979  -0.240  0.00  0.00    +0.009 C 
ATOM     16  C   LIG    1       -6.045   6.474   1.134  0.00  0.00    +0.005 C 
ATOM     17  C   LIG    1       -6.542   7.173  -0.133  0.00  0.00    +0.005 C 
ENDBRANCH  14  15
ENDBRANCH  10  14
ENDBRANCH   6   9
BRANCH   2  18
ATOM     18  C   LIG    1        1.280   1.980   0.001  0.00  0.00    +0.152 C 
BRANCH  18  19
ATOM     19  C   LIG    1        2.439   1.016  -0.016  0.00  0.00    +0.068 A 
ATOM     20  N   LIG    1        2.536   0.084   0.916  0.00  0.00    -0.256 NA
ATOM     21  C   LIG    1        3.549  -0.764   0.898  0.00  0.00    +0.130 A 
ATOM     22  C   LIG    1        4.514  -0.669  -0.089  0.00  0.00    +0.130 A 
ATOM     23  N   LIG    1        4.420   0.266  -1.017  0.00  0.00    -0.260 NA
ATOM     24  C   LIG    1        3.404   1.111  -1.003  0.00  0.00    +0.134 A 
ENDBRANCH  18  19
ENDBRANCH   2  18
TORSDOF 5
