REMARK  Name = ZINC000058179963
REMARK                            x       y       z     vdW  Elec       q    Type
REMARK                         _______ _______ _______ _____ _____    ______ ____
ROOT
ATOM      1  S   LIG    1        2.322  -0.861   1.097  0.00  0.00    +0.061 S 
ATOM      2  O   LIG    1        2.582  -1.780   2.150  0.00  0.00    -0.153 OA
ATOM      3  O   LIG    1        2.591  -1.147  -0.269  0.00  0.00    -0.153 OA
ENDROOT
BRANCH   1   4
ATOM      4  C   LIG    1        3.218   0.606   1.484  0.00  0.00    +0.107 A 
ATOM      5  C   LIG    1        3.564   0.875   2.796  0.00  0.00    +0.049 A 
ATOM      6  C   LIG    1        4.272   2.020   3.105  0.00  0.00    +0.060 A 
ATOM      7 CL   LIG    1        4.712   2.354   4.751  0.00  0.00    -0.082 Cl
ATOM      8  C   LIG    1        4.628   2.913   2.090  0.00  0.00    +0.070 A 
ATOM      9  C   LIG    1        4.269   2.636   0.769  0.00  0.00    +0.022 A 
ATOM     10  C   LIG    1        3.567   1.486   0.474  0.00  0.00    +0.030 A 
BRANCH   8  11
ATOM     11  C   LIG    1        5.356   4.106   2.403  0.00  0.00    +0.101 C 
ATOM     12  N   LIG    1        5.933   5.052   2.651  0.00  0.00    -0.191 NA
ENDBRANCH   8  11
ENDBRANCH   1   4
BRANCH   1  13
ATOM     13  N   LIG    1        0.711  -0.489   1.189  0.00  0.00    -0.177 NA
BRANCH  13  14
ATOM     14  C   LIG    1        0.002  -0.004   0.002  0.00  0.00    +0.106 C 
ATOM     15  C   LIG    1       -0.019   1.526   0.010  0.00  0.00    +0.022 C 
ENDBRANCH  13  14
BRANCH  13  16
ATOM     16  C   LIG    1       -0.006  -0.646   2.457  0.00  0.00    +0.115 C 
BRANCH  16  17
ATOM     17  C   LIG    1       -0.694  -2.013   2.489  0.00  0.00    +0.033 C 
ATOM     18  C   LIG    1       -1.418  -2.235   3.844  0.00  0.00    +0.035 C 
ATOM     19  C   LIG    1       -2.551  -3.203   3.417  0.00  0.00    +0.160 C 
ATOM     20  O   LIG    1       -2.943  -2.765   2.106  0.00  0.00    -0.379 OA
ATOM     21  C   LIG    1       -1.858  -2.066   1.477  0.00  0.00    +0.164 C 
ENDBRANCH  16  17
ENDBRANCH  13  16
ENDBRANCH   1  13
TORSDOF 6
