REMARK  Name = ZINC000082137166
REMARK                            x       y       z     vdW  Elec       q    Type
REMARK                         _______ _______ _______ _____ _____    ______ ____
ROOT
ATOM      1  N   LIG    1       -2.122  -7.172   2.498  0.00  0.00    -0.311 N 
ATOM      2  C   LIG    1       -3.228  -7.856   2.849  0.00  0.00    +0.245 C 
ATOM      3  O   LIG    1       -4.325  -7.451   2.515  0.00  0.00    -0.270 OA
ATOM      4  H   LIG    1       -1.247  -7.495   2.764  0.00  0.00    +0.149 HD
ENDROOT
BRANCH   2   5
ATOM      5  C   LIG    1       -3.109  -9.098   3.643  0.00  0.00    +0.048 A 
ATOM      6  C   LIG    1       -4.259  -9.773   4.125  0.00  0.00    +0.013 A 
ATOM      7  C   LIG    1       -4.091 -10.960   4.880  0.00  0.00    +0.075 A 
ATOM      8  C   LIG    1       -5.230 -11.632   5.359  0.00  0.00    +0.066 A 
ATOM      9  C   LIG    1       -6.470 -11.134   5.092  0.00  0.00    +0.125 A 
ATOM     10  F   LIG    1       -7.561 -11.782   5.555  0.00  0.00    -0.205 F 
ATOM     11  C   LIG    1       -6.630  -9.964   4.348  0.00  0.00    +0.039 A 
ATOM     12  N   LIG    1       -2.864 -11.427   5.126  0.00  0.00    -0.252 NA
ATOM     13  C   LIG    1       -1.791 -10.816   4.688  0.00  0.00    +0.040 A 
ATOM     14  C   LIG    1       -0.437 -11.398   5.002  0.00  0.00    +0.065 C 
ATOM     15  C   LIG    1       -5.549  -9.288   3.869  0.00  0.00    +0.013 A 
ATOM     16  C   LIG    1       -1.867  -9.647   3.935  0.00  0.00    +0.036 A 
ENDBRANCH   2   5
BRANCH   1  17
ATOM     17  C   LIG    1       -2.240  -5.941   1.712  0.00  0.00    +0.114 C 
BRANCH  17  18
ATOM     18  C   LIG    1       -0.846  -5.367   1.450  0.00  0.00    +0.117 C 
BRANCH  18  19
ATOM     19  C   LIG    1       -0.967  -4.101   0.643  0.00  0.00    +0.229 A 
ATOM     20  N   LIG    1       -1.089  -2.883   1.113  0.00  0.00    -0.194 NA
ATOM     21  C   LIG    1       -1.166  -2.084   0.034  0.00  0.00    +0.197 A 
ATOM     22  N   LIG    1       -1.081  -2.842  -1.018  0.00  0.00    -0.059 NA
ATOM     23  O   LIG    1       -0.966  -4.004  -0.690  0.00  0.00    -0.338 OA
BRANCH  21  24
ATOM     24  C   LIG    1       -1.318  -0.585   0.043  0.00  0.00    +0.239 C 
BRANCH  24  25
ATOM     25  O   LIG    1       -0.025   0.025   0.051  0.00  0.00    -0.375 OA
ATOM     26  C   LIG    1       -0.056   1.453   0.060  0.00  0.00    +0.194 C 
ENDBRANCH  24  25
ENDBRANCH  21  24
ENDBRANCH  18  19
ENDBRANCH  17  18
ENDBRANCH   1  17
TORSDOF 6
