REMARK  Name = ZINC000069616688
REMARK                            x       y       z     vdW  Elec       q    Type
REMARK                         _______ _______ _______ _____ _____    ______ ____
ROOT
ATOM      1  C   LIG    1        2.372  -0.707  -2.252  0.00  0.00    +0.143 C 
ATOM      2  N   LIG    1        3.668  -0.073  -2.525  0.00  0.00    -0.283 NA
ATOM      3  C   LIG    1        4.234  -0.548  -3.794  0.00  0.00    +0.085 C 
ATOM      4  C   LIG    1        3.297  -0.174  -4.944  0.00  0.00    +0.015 C 
ATOM      5  C   LIG    1        1.925  -0.811  -4.706  0.00  0.00    +0.003 C 
ATOM      6  C   LIG    1        1.379  -0.338  -3.356  0.00  0.00    +0.028 C 
ENDROOT
BRANCH   1   7
ATOM      7  C   LIG    1        1.847  -0.226  -0.924  0.00  0.00    +0.231 C 
ATOM      8  N   LIG    1        1.060  -1.027  -0.180  0.00  0.00    -0.309 N 
ATOM      9  H   LIG    1        0.830  -1.914  -0.499  0.00  0.00    +0.149 HD
ATOM     10  O   LIG    1        2.134   0.883  -0.524  0.00  0.00    -0.274 OA
BRANCH   8  11
ATOM     11  C   LIG    1        0.550  -0.559   1.112  0.00  0.00    +0.026 C 
ATOM     12  C   LIG    1        1.724  -0.234   2.036  0.00  0.00    +0.031 C 
ATOM     13  C   LIG    1       -0.311  -1.653   1.746  0.00  0.00    +0.031 C 
ATOM     14  C   LIG    1       -0.297   0.698   0.900  0.00  0.00    +0.031 C 
ENDBRANCH   8  11
ENDBRANCH   1   7
BRANCH   2  15
ATOM     15  C   LIG    1        4.605  -0.292  -1.415  0.00  0.00    +0.181 C 
BRANCH  15  16
ATOM     16  C   LIG    1        4.832  -1.770  -1.234  0.00  0.00    +0.231 C 
ATOM     17  N   LIG    1        5.662  -2.211  -0.267  0.00  0.00    -0.284 N 
ATOM     18  H   LIG    1        6.055  -1.582   0.358  0.00  0.00    +0.155 HD
ATOM     19  O   LIG    1        4.269  -2.564  -1.958  0.00  0.00    -0.274 OA
BRANCH  17  20
ATOM     20  C   LIG    1        5.955  -3.576  -0.165  0.00  0.00    +0.035 A 
ATOM     21  C   LIG    1        6.154  -4.152   1.083  0.00  0.00    +0.023 A 
ATOM     22  C   LIG    1        6.443  -5.500   1.190  0.00  0.00    +0.003 A 
ATOM     23  C   LIG    1        6.537  -6.282   0.057  0.00  0.00    +0.019 A 
ATOM     24  C   LIG    1        6.339  -5.712  -1.203  0.00  0.00    +0.054 A 
ATOM     25  C   LIG    1        6.042  -4.353  -1.310  0.00  0.00    +0.042 A 
BRANCH  24  26
ATOM     26  C   LIG    1        6.435  -6.521  -2.381  0.00  0.00    +0.099 C 
ATOM     27  N   LIG    1        6.511  -7.163  -3.315  0.00  0.00    -0.191 NA
ENDBRANCH  24  26
ENDBRANCH  17  20
ENDBRANCH  15  16
ENDBRANCH   2  15
TORSDOF 6
