REMARK  Name = ZINC000009617217
REMARK                            x       y       z     vdW  Elec       q    Type
REMARK                         _______ _______ _______ _____ _____    ______ ____
ROOT
ATOM      1  C   LIG    1        0.009   1.499   0.020  0.00  0.00    +0.044 C 
ATOM      2  C   LIG    1        0.024  -0.008   0.008  0.00  0.00    -0.046 C 
ATOM      3  C   LIG    1       -1.146  -0.705   0.015  0.00  0.00    +0.050 C 
ATOM      4  C   LIG    1       -1.114  -2.112   0.004  0.00  0.00    +0.141 C 
ATOM      5  N   LIG    1       -2.257  -2.794   0.011  0.00  0.00    -0.232 NA
ATOM      6  C   LIG    1       -2.272  -4.118   0.002  0.00  0.00    +0.067 C 
ATOM      7  C   LIG    1       -3.586  -4.856   0.009  0.00  0.00    +0.068 C 
ATOM      8  C   LIG    1       -1.080  -4.824  -0.016  0.00  0.00    +0.121 C 
ATOM      9  C   LIG    1        0.130  -4.110  -0.023  0.00  0.00    +0.280 C 
ATOM     10  O   LIG    1        1.199  -4.700  -0.039  0.00  0.00    -0.265 OA
ATOM     11  N   LIG    1        0.091  -2.760  -0.013  0.00  0.00    -0.267 N 
ATOM     12  C   LIG    1        1.256  -2.053  -0.020  0.00  0.00    +0.096 C 
ATOM     13  C   LIG    1        1.243  -0.701  -0.016  0.00  0.00    +0.021 C 
ENDROOT
BRANCH   8  14
ATOM     14  N   LIG    1       -1.081  -6.228  -0.027  0.00  0.00    -0.276 N 
ATOM     15  H   LIG    1       -1.500  -6.718   0.698  0.00  0.00    +0.155 HD
ATOM     16  C   LIG    1       -0.500  -6.894  -1.044  0.00  0.00    +0.248 C 
ATOM     17  O   LIG    1        0.099  -6.283  -1.907  0.00  0.00    -0.270 OA
BRANCH  16  18
ATOM     18  C   LIG    1       -0.592  -8.368  -1.110  0.00  0.00    +0.039 A 
ATOM     19  C   LIG    1       -1.285  -9.072  -0.123  0.00  0.00    +0.013 A 
ATOM     20  C   LIG    1       -1.367 -10.448  -0.191  0.00  0.00    +0.003 A 
ATOM     21  C   LIG    1       -0.765 -11.129  -1.234  0.00  0.00    +0.033 A 
ATOM     22  C   LIG    1       -0.077 -10.437  -2.215  0.00  0.00    +0.127 A 
ATOM     23  C   LIG    1        0.008  -9.062  -2.162  0.00  0.00    +0.045 A 
BRANCH  22  24
ATOM     24  N   LIG    1        0.564 -11.175  -3.327  0.00  0.00    +0.056 N 
ATOM     25  O   LIG    1        0.485 -12.389  -3.377  0.00  0.00    -0.126 OA
ATOM     26  O   LIG    1        1.170 -10.567  -4.191  0.00  0.00    -0.126 OA
ENDBRANCH  22  24
ENDBRANCH  16  18
ENDBRANCH   8  14
TORSDOF 3
