REMARK  Name = ZINC000058195352
REMARK                            x       y       z     vdW  Elec       q    Type
REMARK                         _______ _______ _______ _____ _____    ______ ____
ROOT
ATOM      1  C   LIG    1       -2.438   1.135   0.024  0.00  0.00    +0.163 C 
ENDROOT
BRANCH   1   2
ATOM      2  C   LIG    1       -2.864   0.632   1.379  0.00  0.00    +0.236 C 
ATOM      3  O   LIG    1       -2.490   1.200   2.383  0.00  0.00    -0.274 OA
ATOM      4  N   LIG    1       -3.661  -0.451   1.475  0.00  0.00    -0.300 N 
ATOM      5  C   LIG    1       -4.237  -0.986   2.722  0.00  0.00    +0.108 C 
ATOM      6  C   LIG    1       -5.498  -1.768   2.271  0.00  0.00    +0.020 C 
ATOM      7  C   LIG    1       -5.013  -2.394   0.936  0.00  0.00    +0.020 C 
ATOM      8  C   LIG    1       -4.096  -1.297   0.354  0.00  0.00    +0.108 C 
ENDBRANCH   1   2
BRANCH   1   9
ATOM      9  N   LIG    1       -1.172   1.862   0.150  0.00  0.00    -0.302 N 
ATOM     10  H   LIG    1       -1.175   2.827   0.251  0.00  0.00    +0.150 HD
ATOM     11  C   LIG    1       -0.004   1.190   0.125  0.00  0.00    +0.239 C 
ATOM     12  O   LIG    1       -0.001  -0.016  -0.002  0.00  0.00    -0.273 OA
BRANCH  11  13
ATOM     13  C   LIG    1        1.299   1.939   0.248  0.00  0.00    +0.255 C 
BRANCH  13  14
ATOM     14  O   LIG    1        2.387   1.014   0.188  0.00  0.00    -0.367 OA
BRANCH  14  15
ATOM     15  C   LIG    1        3.674   1.624   0.296  0.00  0.00    +0.119 C 
ATOM     16  C   LIG    1        4.171   1.586   1.762  0.00  0.00    +0.031 C 
ATOM     17  C   LIG    1        5.708   1.692   1.606  0.00  0.00    +0.003 C 
ATOM     18  C   LIG    1        6.019   0.849   0.351  0.00  0.00    +0.003 C 
ATOM     19  C   LIG    1        4.726   0.806  -0.481  0.00  0.00    +0.031 C 
ENDBRANCH  14  15
ENDBRANCH  13  14
ENDBRANCH  11  13
ENDBRANCH   1   9
BRANCH   1  20
ATOM     20  C   LIG    1       -3.511   2.073  -0.532  0.00  0.00    +0.067 C 
BRANCH  20  21
ATOM     21  C   LIG    1       -3.151   2.469  -1.941  0.00  0.00    -0.045 A 
ATOM     22  C   LIG    1       -2.375   3.591  -2.167  0.00  0.00    +0.004 A 
ATOM     23  C   LIG    1       -2.044   3.954  -3.459  0.00  0.00    +0.000 A 
ATOM     24  C   LIG    1       -2.489   3.195  -4.525  0.00  0.00    +0.000 A 
ATOM     25  C   LIG    1       -3.264   2.073  -4.300  0.00  0.00    +0.000 A 
ATOM     26  C   LIG    1       -3.591   1.708  -3.007  0.00  0.00    +0.004 A 
ENDBRANCH  20  21
ENDBRANCH   1  20
TORSDOF 7
