REMARK  Name = ZINC000004865608
REMARK                            x       y       z     vdW  Elec       q    Type
REMARK                         _______ _______ _______ _____ _____    ______ ____
ROOT
ATOM      1  C   LIG    1        2.386   1.264  -0.107  0.00  0.00    +0.036 A 
ATOM      2  C   LIG    1        3.552   2.017  -0.106  0.00  0.00    +0.051 A 
ATOM      3  C   LIG    1        4.780   1.383  -0.208  0.00  0.00    +0.069 A 
ATOM      4  N   LIG    1        6.093   1.846  -0.232  0.00  0.00    -0.306 N 
ATOM      5  H   LIG    1        6.370   2.774  -0.171  0.00  0.00    +0.170 HD
ATOM      6  C   LIG    1        6.915   0.786  -0.354  0.00  0.00    +0.325 A 
ATOM      7  O   LIG    1        8.129   0.843  -0.406  0.00  0.00    -0.247 OA
ATOM      8  N   LIG    1        6.189  -0.346  -0.411  0.00  0.00    -0.306 N 
ATOM      9  H   LIG    1        6.545  -1.245  -0.498  0.00  0.00    +0.170 HD
ATOM     10  C   LIG    1        4.839  -0.008  -0.322  0.00  0.00    +0.067 A 
ATOM     11  C   LIG    1        3.670  -0.753  -0.327  0.00  0.00    +0.029 A 
ATOM     12  C   LIG    1        2.448  -0.119  -0.220  0.00  0.00    +0.025 A 
ENDROOT
BRANCH   1  13
ATOM     13  N   LIG    1        1.143   1.901   0.001  0.00  0.00    -0.281 N 
ATOM     14  C   LIG    1        1.023   3.024   0.737  0.00  0.00    +0.250 C 
ATOM     15  O   LIG    1        1.969   3.431   1.384  0.00  0.00    -0.270 OA
ATOM     16  H   LIG    1        0.369   1.534  -0.453  0.00  0.00    +0.155 HD
BRANCH  14  17
ATOM     17  C   LIG    1       -0.260   3.758   0.762  0.00  0.00    +0.056 A 
ATOM     18  C   LIG    1       -0.399   4.922   1.526  0.00  0.00    +0.031 A 
ATOM     19  C   LIG    1       -1.620   5.574   1.512  0.00  0.00    +0.037 A 
ATOM     20 BR   LIG    1       -1.871   7.156   2.518  0.00  0.00    -0.049 Br
ATOM     21  C   LIG    1       -2.657   5.053   0.757  0.00  0.00    +0.126 A 
ATOM     22  N   LIG    1       -2.497   3.951   0.050  0.00  0.00    -0.261 NA
ATOM     23  C   LIG    1       -1.354   3.298   0.028  0.00  0.00    +0.123 A 
ENDBRANCH  14  17
ENDBRANCH   1  13
TORSDOF 2
