REMARK  Name = ZINC000069618334
REMARK                            x       y       z     vdW  Elec       q    Type
REMARK                         _______ _______ _______ _____ _____    ______ ____
ROOT
ATOM      1  C   LIG    1        0.029  -2.907   2.547  0.00  0.00    +0.266 C 
ATOM      2  O   LIG    1        0.113  -2.356   3.628  0.00  0.00    -0.268 OA
ATOM      3  N   LIG    1       -0.048  -4.251   2.481  0.00  0.00    -0.167 N 
ENDROOT
BRANCH   1   4
ATOM      4  C   LIG    1        0.012  -2.103   1.307  0.00  0.00    +0.039 A 
ATOM      5  C   LIG    1       -0.954  -1.112   1.127  0.00  0.00    +0.016 A 
ATOM      6  C   LIG    1       -0.967  -0.368  -0.035  0.00  0.00    -0.050 A 
ATOM      7  C   LIG    1       -2.012   0.699  -0.233  0.00  0.00    +0.044 C 
ATOM      8  C   LIG    1       -0.019  -0.597  -1.017  0.00  0.00    +0.003 A 
ATOM      9  C   LIG    1        0.944  -1.575  -0.843  0.00  0.00    +0.001 A 
ATOM     10  C   LIG    1        0.966  -2.329   0.312  0.00  0.00    +0.013 A 
ENDBRANCH   1   4
BRANCH   3  11
ATOM     11  S   LIG    1       -0.025  -5.010   1.009  0.00  0.00    +0.083 S 
ATOM     12  O   LIG    1       -0.893  -6.129   1.120  0.00  0.00    -0.149 OA
ATOM     13  O   LIG    1       -0.189  -3.993   0.030  0.00  0.00    -0.149 OA
BRANCH  11  14
ATOM     14  C   LIG    1        1.598  -5.659   0.783  0.00  0.00    +0.146 A 
ATOM     15  C   LIG    1        2.039  -6.816   1.280  0.00  0.00    +0.036 A 
ATOM     16  C   LIG    1        3.353  -7.120   0.970  0.00  0.00    +0.010 A 
ATOM     17  C   LIG    1        3.980  -6.211   0.222  0.00  0.00    +0.047 A 
ATOM     18  S   LIG    1        2.881  -4.885  -0.138  0.00  0.00    -0.077 S 
ENDBRANCH  11  14
ENDBRANCH   3  11
BRANCH   3  19
ATOM     19  C   LIG    1       -0.154  -5.041   3.710  0.00  0.00    +0.137 C 
BRANCH  19  20
ATOM     20  C   LIG    1       -1.620  -5.124   4.139  0.00  0.00    +0.049 C 
BRANCH  20  21
ATOM     21  C   LIG    1       -1.730  -5.949   5.423  0.00  0.00    +0.157 C 
BRANCH  21  22
ATOM     22  O   LIG    1       -3.100  -6.027   5.823  0.00  0.00    -0.395 OA
ATOM     23  H   LIG    1       -3.245  -6.536   6.632  0.00  0.00    +0.209 HD
ENDBRANCH  21  22
ENDBRANCH  20  21
ENDBRANCH  19  20
ENDBRANCH   3  19
TORSDOF 7
