REMARK  Name = ZINC000058179532
REMARK                            x       y       z     vdW  Elec       q    Type
REMARK                         _______ _______ _______ _____ _____    ______ ____
ROOT
ATOM      1  O   LIG    1        0.002  -0.004   0.002  0.00  0.00    -0.268 OA
ATOM      2  C   LIG    1       -0.014   1.211   0.009  0.00  0.00    +0.264 C 
ATOM      3  N   LIG    1        1.143   1.900   0.001  0.00  0.00    -0.310 N 
ATOM      4  H   LIG    1        1.130   2.870   0.007  0.00  0.00    +0.149 HD
ENDROOT
BRANCH   2   5
ATOM      5  C   LIG    1       -1.309   1.935   0.019  0.00  0.00    +0.149 A 
ATOM      6  N   LIG    1       -1.339   3.266   0.021  0.00  0.00    -0.208 NA
ATOM      7  C   LIG    1       -2.492   3.914   0.030  0.00  0.00    +0.219 A 
ATOM      8  N   LIG    1       -3.653   3.274   0.037  0.00  0.00    -0.221 NA
ATOM      9  C   LIG    1       -3.702   1.954   0.035  0.00  0.00    +0.136 A 
ATOM     10  C   LIG    1       -2.515   1.231   0.021  0.00  0.00    +0.090 A 
ATOM     11 CL   LIG    1       -2.532  -0.504   0.018  0.00  0.00    -0.080 Cl
BRANCH   7  12
ATOM     12  N   LIG    1       -2.486   5.299   0.031  0.00  0.00    -0.300 N 
ATOM     13  C   LIG    1       -3.680   6.164   0.041  0.00  0.00    +0.108 C 
ATOM     14  C   LIG    1       -3.192   7.503   0.654  0.00  0.00    +0.020 C 
ATOM     15  C   LIG    1       -1.766   7.617   0.051  0.00  0.00    +0.020 C 
ATOM     16  C   LIG    1       -1.287   6.151   0.017  0.00  0.00    +0.108 C 
ENDBRANCH   7  12
ENDBRANCH   2   5
BRANCH   3  17
ATOM     17  C   LIG    1        2.422   1.185  -0.015  0.00  0.00    +0.104 C 
BRANCH  17  18
ATOM     18  C   LIG    1        3.571   2.195  -0.020  0.00  0.00    +0.020 C 
BRANCH  18  19
ATOM     19  C   LIG    1        4.907   1.448  -0.037  0.00  0.00    +0.023 C 
BRANCH  19  20
ATOM     20  C   LIG    1        6.056   2.458  -0.043  0.00  0.00    +0.123 C 
BRANCH  20  21
ATOM     21  N   LIG    1        7.334   1.743  -0.059  0.00  0.00    -0.337 N 
ATOM     22  C   LIG    1        8.051   1.336   1.034  0.00  0.00    +0.106 A 
ATOM     23  C   LIG    1        9.155   0.720   0.569  0.00  0.00    +0.130 A 
ATOM     24  N   LIG    1        9.113   0.751  -0.771  0.00  0.00    -0.244 NA
ATOM     25  C   LIG    1        8.023   1.357  -1.154  0.00  0.00    +0.199 A 
ENDBRANCH  20  21
ENDBRANCH  19  20
ENDBRANCH  18  19
ENDBRANCH  17  18
ENDBRANCH   3  17
TORSDOF 7
