REMARK  Name = ZINC000082137775
REMARK                            x       y       z     vdW  Elec       q    Type
REMARK                         _______ _______ _______ _____ _____    ______ ____
ROOT
ATOM      1  C   LIG    1        1.716  -3.728  -3.216  0.00  0.00    +0.244 C 
ATOM      2  O   LIG    1        2.760  -4.346  -3.199  0.00  0.00    -0.273 OA
ATOM      3  N   LIG    1        0.553  -4.375  -3.430  0.00  0.00    -0.299 N 
ATOM      4  C   LIG    1       -0.718  -3.640  -3.459  0.00  0.00    +0.108 C 
ATOM      5  C   LIG    1       -1.446  -3.965  -4.768  0.00  0.00    +0.030 C 
ATOM      6  C   LIG    1       -1.594  -5.483  -4.900  0.00  0.00    +0.058 C 
ATOM      7  C   LIG    1       -0.208  -6.130  -4.944  0.00  0.00    +0.030 C 
ATOM      8  C   LIG    1        0.534  -5.829  -3.644  0.00  0.00    +0.108 C 
ENDROOT
BRANCH   6   9
ATOM      9  C   LIG    1       -2.340  -5.805  -6.170  0.00  0.00    +0.113 A 
ATOM     10  N   LIG    1       -3.513  -6.470  -6.246  0.00  0.00    -0.334 N 
ATOM     11  C   LIG    1       -3.847  -6.550  -7.571  0.00  0.00    +0.107 A 
ATOM     12  C   LIG    1       -2.863  -5.938  -8.259  0.00  0.00    +0.130 A 
ATOM     13  N   LIG    1       -1.956  -5.493  -7.377  0.00  0.00    -0.240 NA
BRANCH  10  14
ATOM     14  C   LIG    1       -4.287  -6.999  -5.121  0.00  0.00    +0.126 C 
BRANCH  14  15
ATOM     15  C   LIG    1       -5.173  -5.893  -4.546  0.00  0.00    +0.009 C 
ATOM     16  C   LIG    1       -5.976  -6.215  -3.284  0.00  0.00    +0.005 C 
ATOM     17  C   LIG    1       -6.689  -6.085  -4.632  0.00  0.00    +0.005 C 
ENDBRANCH  14  15
ENDBRANCH  10  14
ENDBRANCH   6   9
BRANCH   1  18
ATOM     18  C   LIG    1        1.720  -2.237  -2.998  0.00  0.00    +0.201 C 
BRANCH  18  19
ATOM     19  O   LIG    1        3.068  -1.772  -2.910  0.00  0.00    -0.383 OA
ATOM     20  H   LIG    1        3.574  -2.167  -2.188  0.00  0.00    +0.210 HD
ENDBRANCH  18  19
BRANCH  18  21
ATOM     21  C   LIG    1        0.982  -1.910  -1.698  0.00  0.00    +0.051 C 
BRANCH  21  22
ATOM     22  C   LIG    1        0.877  -0.392  -1.539  0.00  0.00    +0.072 C 
BRANCH  22  23
ATOM     23  S   LIG    1        0.002  -0.004   0.002  0.00  0.00    -0.164 S 
ATOM     24  C   LIG    1       -0.022   1.810   0.012  0.00  0.00    +0.084 C 
ENDBRANCH  22  23
ENDBRANCH  21  22
ENDBRANCH  18  21
ENDBRANCH   1  18
TORSDOF 8
