REMARK  Name = ZINC000000240483
REMARK                            x       y       z     vdW  Elec       q    Type
REMARK                         _______ _______ _______ _____ _____    ______ ____
ROOT
ATOM      1  N   LIG    1        0.821  -6.233  -1.335  0.00  0.00    -0.202 N 
ATOM      2  C   LIG    1        0.297  -7.063  -0.416  0.00  0.00    +0.258 C 
ATOM      3  O   LIG    1       -0.289  -6.725   0.593  0.00  0.00    -0.269 OA
ATOM      4  C   LIG    1        0.554  -8.456  -0.838  0.00  0.00    +0.050 A 
ATOM      5  C   LIG    1        0.258  -9.700  -0.304  0.00  0.00    +0.016 A 
ATOM      6  C   LIG    1        0.656 -10.847  -0.972  0.00  0.00    +0.033 A 
ATOM      7  C   LIG    1        1.346 -10.759  -2.166  0.00  0.00    +0.127 A 
ATOM      8  C   LIG    1        1.649  -9.522  -2.713  0.00  0.00    +0.046 A 
ATOM      9  C   LIG    1        1.258  -8.366  -2.057  0.00  0.00    +0.052 A 
ATOM     10  C   LIG    1        1.399  -6.922  -2.336  0.00  0.00    +0.258 C 
ATOM     11  O   LIG    1        1.948  -6.438  -3.305  0.00  0.00    -0.269 OA
ENDROOT
BRANCH   1  12
ATOM     12  C   LIG    1        0.767  -4.839  -1.264  0.00  0.00    +0.045 A 
ATOM     13  C   LIG    1        0.144  -4.224  -0.183  0.00  0.00    +0.025 A 
ATOM     14  C   LIG    1        0.088  -2.850  -0.109  0.00  0.00    +0.017 A 
ATOM     15  C   LIG    1        0.659  -2.074  -1.122  0.00  0.00    +0.059 A 
ATOM     16  C   LIG    1        1.279  -2.696  -2.209  0.00  0.00    +0.017 A 
ATOM     17  C   LIG    1        1.335  -4.070  -2.274  0.00  0.00    +0.025 A 
BRANCH  15  18
ATOM     18  C   LIG    1        0.601  -0.602  -1.047  0.00  0.00    +0.339 C 
ATOM     19  O   LIG    1        1.093   0.071  -1.930  0.00  0.00    -0.245 OA
BRANCH  18  20
ATOM     20  O   LIG    1        0.002  -0.004   0.002  0.00  0.00    -0.464 OA
ATOM     21  C   LIG    1       -0.018   1.448   0.010  0.00  0.00    +0.280 C 
ENDBRANCH  18  20
ENDBRANCH  15  18
ENDBRANCH   1  12
BRANCH   7  22
ATOM     22  N   LIG    1        1.763 -11.994  -2.867  0.00  0.00    +0.056 N 
ATOM     23  O   LIG    1        1.498 -13.084  -2.391  0.00  0.00    -0.126 OA
ATOM     24  O   LIG    1        2.371 -11.922  -3.920  0.00  0.00    -0.126 OA
ENDBRANCH   7  22
TORSDOF 4
