REMARK  Name = ZINC000082147257
REMARK                            x       y       z     vdW  Elec       q    Type
REMARK                         _______ _______ _______ _____ _____    ______ ____
ROOT
ATOM      1  C   LIG    1       -1.201  -0.638   0.010  0.00  0.00    +0.165 A 
ATOM      2  C   LIG    1       -2.375   0.101   0.019  0.00  0.00    +0.053 A 
ATOM      3  C   LIG    1       -3.598  -0.543   0.028  0.00  0.00    -0.031 A 
ATOM      4  C   LIG    1       -3.657  -1.924   0.026  0.00  0.00    +0.053 A 
ATOM      5  C   LIG    1       -2.488  -2.670   0.017  0.00  0.00    +0.165 A 
ATOM      6  C   LIG    1       -1.256  -2.027   0.003  0.00  0.00    +0.204 A 
ENDROOT
BRANCH   5   7
ATOM      7  O   LIG    1       -2.547  -4.028   0.015  0.00  0.00    -0.491 OA
ATOM      8  C   LIG    1       -3.847  -4.621   0.024  0.00  0.00    +0.277 C 
ENDBRANCH   5   7
BRANCH   6   9
ATOM      9  O   LIG    1       -0.106  -2.755  -0.006  0.00  0.00    -0.488 OA
ATOM     10  C   LIG    1        0.429  -3.105  -1.284  0.00  0.00    +0.277 C 
ENDBRANCH   6   9
BRANCH   1  11
ATOM     11  O   LIG    1        0.002  -0.004   0.002  0.00  0.00    -0.491 OA
ATOM     12  C   LIG    1       -0.017   1.425   0.010  0.00  0.00    +0.277 C 
ENDBRANCH   1  11
BRANCH   3  13
ATOM     13  C   LIG    1       -4.871   0.264   0.038  0.00  0.00    +0.134 C 
BRANCH  13  14
ATOM     14  C   LIG    1       -5.306   0.534  -1.379  0.00  0.00    +0.232 A 
ATOM     15  N   LIG    1       -6.098  -0.214  -2.106  0.00  0.00    -0.190 NA
ATOM     16  C   LIG    1       -6.204   0.419  -3.297  0.00  0.00    +0.222 A 
ATOM     17  N   LIG    1       -5.476   1.503  -3.224  0.00  0.00    -0.054 NA
ATOM     18  O   LIG    1       -4.960   1.585  -2.129  0.00  0.00    -0.337 OA
BRANCH  16  19
ATOM     19  C   LIG    1       -6.997  -0.033  -4.468  0.00  0.00    +0.133 A 
ATOM     20  N   LIG    1       -7.694  -1.160  -4.406  0.00  0.00    -0.146 NA
ATOM     21  N   LIG    1       -8.396  -1.582  -5.395  0.00  0.00    -0.157 NA
ATOM     22  C   LIG    1       -8.463  -0.930  -6.541  0.00  0.00    +0.135 A 
ATOM     23  C   LIG    1       -7.765   0.256  -6.707  0.00  0.00    +0.024 A 
ATOM     24  C   LIG    1       -7.008   0.723  -5.641  0.00  0.00    +0.035 A 
ENDBRANCH  16  19
ENDBRANCH  13  14
ENDBRANCH   3  13
TORSDOF 6
