REMARK  Name = ZINC000000223692
REMARK                            x       y       z     vdW  Elec       q    Type
REMARK                         _______ _______ _______ _____ _____    ______ ____
ROOT
ATOM      1  C   LIG    1        0.033  -2.636  -2.662  0.00  0.00    +0.153 C 
ENDROOT
BRANCH   1   2
ATOM      2  C   LIG    1        0.026  -1.973  -1.308  0.00  0.00    +0.078 A 
ATOM      3  C   LIG    1        0.050  -2.789  -0.094  0.00  0.00    +0.011 A 
ATOM      4  C   LIG    1        0.043  -2.136   1.160  0.00  0.00    +0.050 A 
ATOM      5  C   LIG    1        0.065  -2.887   2.333  0.00  0.00    +0.014 A 
ATOM      6  C   LIG    1        0.092  -4.263   2.258  0.00  0.00    +0.001 A 
ATOM      7  C   LIG    1        0.099  -4.906   1.028  0.00  0.00    +0.001 A 
ATOM      8  C   LIG    1        0.018  -0.668   1.177  0.00  0.00    +0.275 A 
ATOM      9  O   LIG    1        0.016  -0.060   2.233  0.00  0.00    -0.266 OA
ATOM     10  N   LIG    1       -0.008  -0.005   0.002  0.00  0.00    -0.232 N 
ATOM     11  C   LIG    1       -0.038   1.460   0.011  0.00  0.00    +0.176 C 
ATOM     12  C   LIG    1        0.078  -4.184  -0.145  0.00  0.00    +0.010 A 
ATOM     13  N   LIG    1       -0.001  -0.677  -1.220  0.00  0.00    -0.172 NA
ENDBRANCH   1   2
BRANCH   1  14
ATOM     14  C   LIG    1        0.005  -1.582  -3.738  0.00  0.00    +0.223 C 
ATOM     15  O   LIG    1       -0.018  -0.407  -3.436  0.00  0.00    -0.275 OA
ATOM     16  N   LIG    1        0.006  -1.944  -5.036  0.00  0.00    -0.285 N 
ATOM     17  H   LIG    1        0.092  -2.879  -5.279  0.00  0.00    +0.155 HD
BRANCH  16  18
ATOM     18  C   LIG    1       -0.118  -0.970  -6.035  0.00  0.00    +0.036 A 
ATOM     19  C   LIG    1        0.458   0.282  -5.859  0.00  0.00    +0.064 A 
ATOM     20  C   LIG    1        0.340   1.240  -6.849  0.00  0.00    +0.160 A 
ATOM     21  F   LIG    1        0.903   2.457  -6.682  0.00  0.00    -0.202 F 
ATOM     22  C   LIG    1       -0.363   0.955  -8.011  0.00  0.00    +0.159 A 
ATOM     23  C   LIG    1       -0.941  -0.290  -8.183  0.00  0.00    +0.043 A 
ATOM     24  F   LIG    1       -0.482   1.893  -8.975  0.00  0.00    -0.202 F 
ATOM     25  C   LIG    1       -0.820  -1.252  -7.198  0.00  0.00    +0.026 A 
ENDBRANCH  16  18
ENDBRANCH   1  14
TORSDOF 3
