REMARK  Name = ZINC000012971902
REMARK                            x       y       z     vdW  Elec       q    Type
REMARK                         _______ _______ _______ _____ _____    ______ ____
ROOT
ATOM      1  C   LIG    1        0.232  -6.316   3.595  0.00  0.00    +0.151 C 
ENDROOT
BRANCH   1   2
ATOM      2  N   LIG    1        0.247  -6.886   4.944  0.00  0.00    -0.239 N 
ATOM      3  C   LIG    1        1.374  -7.056   5.648  0.00  0.00    +0.223 C 
ATOM      4  C   LIG    1        1.034  -7.662   6.993  0.00  0.00    +0.112 C 
ATOM      5  C   LIG    1       -0.495  -7.811   6.940  0.00  0.00    +0.056 C 
ATOM      6  C   LIG    1       -1.146  -6.979   8.039  0.00  0.00    +0.016 C 
ATOM      7  C   LIG    1       -2.668  -7.119   7.954  0.00  0.00    +0.001 C 
ATOM      8  C   LIG    1       -3.053  -8.592   8.110  0.00  0.00    +0.000 C 
ATOM      9  C   LIG    1       -2.411  -9.410   6.987  0.00  0.00    +0.001 C 
ATOM     10  C   LIG    1       -0.888  -9.279   7.068  0.00  0.00    +0.016 C 
ATOM     11  O   LIG    1        2.489  -6.771   5.267  0.00  0.00    -0.275 OA
ATOM     12  C   LIG    1       -0.867  -7.274   5.580  0.00  0.00    +0.228 C 
ATOM     13  O   LIG    1       -1.992  -7.209   5.133  0.00  0.00    -0.275 OA
ENDBRANCH   1   2
BRANCH   1  14
ATOM     14  C   LIG    1        0.086  -4.796   3.684  0.00  0.00    +0.170 C 
BRANCH  14  15
ATOM     15  O   LIG    1       -1.137  -4.474   4.350  0.00  0.00    -0.387 OA
ATOM     16  H   LIG    1       -1.927  -4.811   3.907  0.00  0.00    +0.210 HD
ENDBRANCH  14  15
BRANCH  14  17
ATOM     17  C   LIG    1        0.071  -4.202   2.274  0.00  0.00    +0.261 C 
BRANCH  17  18
ATOM     18  O   LIG    1        0.051  -2.775   2.359  0.00  0.00    -0.489 OA
BRANCH  18  19
ATOM     19  C   LIG    1        0.036  -2.088   1.187  0.00  0.00    +0.121 A 
ATOM     20  C   LIG    1        0.023  -0.701   1.195  0.00  0.00    +0.049 A 
ATOM     21  C   LIG    1        0.002  -0.004   0.002  0.00  0.00    -0.047 A 
ATOM     22  C   LIG    1       -0.018   1.503   0.010  0.00  0.00    +0.044 C 
ATOM     23  C   LIG    1        0.006  -0.688  -1.199  0.00  0.00    +0.003 A 
ATOM     24  C   LIG    1        0.024  -2.071  -1.210  0.00  0.00    +0.004 A 
ATOM     25  C   LIG    1        0.040  -2.772  -0.020  0.00  0.00    +0.045 A 
ENDBRANCH  18  19
ENDBRANCH  17  18
ENDBRANCH  14  17
ENDBRANCH   1  14
TORSDOF 6
