REMARK  Name = ZINC000194263311
REMARK                            x       y       z     vdW  Elec       q    Type
REMARK                         _______ _______ _______ _____ _____    ______ ____
ROOT
ATOM      1  O   LIG    1       -0.039  -0.083  -0.051  0.00  0.00    -0.274 OA
ATOM      2  C   LIG    1       -0.012   1.116  -0.238  0.00  0.00    +0.237 C 
ATOM      3  N   LIG    1       -1.154   1.830  -0.200  0.00  0.00    -0.266 N 
ENDROOT
BRANCH   3   4
ATOM      4  C   LIG    1       -1.139   3.192  -0.522  0.00  0.00    +0.037 A 
ATOM      5  C   LIG    1       -0.482   4.095   0.304  0.00  0.00    +0.026 A 
ATOM      6  C   LIG    1       -0.463   5.438  -0.019  0.00  0.00    +0.040 A 
ATOM      7  C   LIG    1       -1.109   5.885  -1.160  0.00  0.00    +0.124 A 
ATOM      8  F   LIG    1       -1.095   7.200  -1.471  0.00  0.00    -0.205 F 
ATOM      9  C   LIG    1       -1.770   4.988  -1.981  0.00  0.00    +0.040 A 
ATOM     10  C   LIG    1       -1.786   3.643  -1.665  0.00  0.00    +0.026 A 
ENDBRANCH   3   4
BRANCH   3  11
ATOM     11  C   LIG    1       -2.411   1.180   0.179  0.00  0.00    +0.150 C 
BRANCH  11  12
ATOM     12  C   LIG    1       -2.597   1.277   1.672  0.00  0.00    -0.012 A 
ATOM     13  C   LIG    1       -2.101   0.288   2.507  0.00  0.00    +0.008 A 
ATOM     14  C   LIG    1       -2.295   0.420   3.873  0.00  0.00    +0.020 A 
ATOM     15  C   LIG    1       -2.972   1.524   4.354  0.00  0.00    +0.111 A 
ATOM     16  N   LIG    1       -3.430   2.446   3.530  0.00  0.00    -0.263 NA
ATOM     17  C   LIG    1       -3.260   2.357   2.226  0.00  0.00    +0.116 A 
ENDBRANCH  11  12
ENDBRANCH   3  11
BRANCH   2  18
ATOM     18  C   LIG    1        1.299   1.805  -0.518  0.00  0.00    +0.204 C 
BRANCH  18  19
ATOM     19  N   LIG    1        2.362   0.804  -0.634  0.00  0.00    -0.283 N 
ATOM     20  C   LIG    1        3.127   0.370   0.545  0.00  0.00    +0.178 C 
ATOM     21  S   LIG    1        3.915  -1.190  -0.021  0.00  0.00    -0.132 S 
ATOM     22  C   LIG    1        3.776  -0.770  -1.805  0.00  0.00    +0.166 C 
ATOM     23  C   LIG    1        2.661   0.257  -1.806  0.00  0.00    +0.227 C 
ATOM     24  O   LIG    1        2.079   0.567  -2.824  0.00  0.00    -0.275 OA
ENDBRANCH  18  19
ENDBRANCH   2  18
TORSDOF 5
