REMARK  Name = ZINC000058179718
REMARK                            x       y       z     vdW  Elec       q    Type
REMARK                         _______ _______ _______ _____ _____    ______ ____
ROOT
ATOM      1  C   LIG    1        0.223  -0.755   1.251  0.00  0.00    +0.108 C 
ENDROOT
BRANCH   1   2
ATOM      2  N   LIG    1        0.090  -0.011  -0.004  0.00  0.00    -0.299 N 
ATOM      3  C   LIG    1        0.166   1.452   0.001  0.00  0.00    +0.132 C 
ATOM      4  C   LIG    1       -0.102  -0.672  -1.163  0.00  0.00    +0.268 C 
ATOM      5  O   LIG    1       -0.257  -1.877  -1.156  0.00  0.00    -0.268 OA
BRANCH   4   6
ATOM      6  C   LIG    1       -0.124   0.069  -2.441  0.00  0.00    +0.165 A 
ATOM      7  N   LIG    1        1.011   0.502  -2.982  0.00  0.00    -0.246 NA
ATOM      8  C   LIG    1        0.987   1.162  -4.122  0.00  0.00    +0.131 A 
ATOM      9  C   LIG    1       -0.217   1.410  -4.764  0.00  0.00    +0.132 A 
ATOM     10  N   LIG    1       -1.353   0.986  -4.239  0.00  0.00    -0.237 NA
ATOM     11  C   LIG    1       -1.344   0.314  -3.093  0.00  0.00    +0.147 A 
BRANCH  11  12
ATOM     12  N   LIG    1       -2.530  -0.131  -2.539  0.00  0.00    -0.341 N 
ATOM     13  H   LIG    1       -2.515  -0.684  -1.742  0.00  0.00    +0.144 HD
ATOM     14  H   LIG    1       -3.376   0.109  -2.948  0.00  0.00    +0.144 HD
ENDBRANCH  11  12
ENDBRANCH   4   6
ENDBRANCH   1   2
BRANCH   1  15
ATOM     15  C   LIG    1       -1.158  -0.941   1.882  0.00  0.00    +0.027 C 
BRANCH  15  16
ATOM     16  C   LIG    1       -1.019  -1.718   3.193  0.00  0.00    +0.079 C 
BRANCH  16  17
ATOM     17  C   LIG    1       -2.379  -1.902   3.815  0.00  0.00    +0.138 A 
ATOM     18  O   LIG    1       -2.981  -1.075   4.681  0.00  0.00    -0.359 OA
ATOM     19  N   LIG    1       -4.072  -1.481   5.007  0.00  0.00    -0.078 NA
ATOM     20  C   LIG    1       -4.351  -2.621   4.426  0.00  0.00    +0.114 A 
ATOM     21  C   LIG    1       -3.227  -2.935   3.612  0.00  0.00    +0.076 A 
BRANCH  20  22
ATOM     22  C   LIG    1       -5.590  -3.424   4.585  0.00  0.00    +0.004 A 
ATOM     23  C   LIG    1       -6.608  -2.979   5.425  0.00  0.00    +0.010 A 
ATOM     24  C   LIG    1       -7.760  -3.727   5.564  0.00  0.00    +0.001 A 
ATOM     25  C   LIG    1       -7.899  -4.921   4.881  0.00  0.00    +0.000 A 
ATOM     26  C   LIG    1       -6.889  -5.370   4.050  0.00  0.00    +0.001 A 
ATOM     27  C   LIG    1       -5.735  -4.628   3.898  0.00  0.00    +0.010 A 
ENDBRANCH  20  22
ENDBRANCH  16  17
ENDBRANCH  15  16
ENDBRANCH   1  15
TORSDOF 7
