REMARK  Name = ZINC000058193658
REMARK                            x       y       z     vdW  Elec       q    Type
REMARK                         _______ _______ _______ _____ _____    ______ ____
ROOT
ATOM      1  N   LIG    1       -5.328   0.217   1.423  0.00  0.00    -0.311 N 
ATOM      2  H   LIG    1       -4.772  -0.090   2.155  0.00  0.00    +0.149 HD
ATOM      3  C   LIG    1       -6.484   0.862   1.678  0.00  0.00    +0.215 C 
ATOM      4  O   LIG    1       -7.180   1.246   0.762  0.00  0.00    -0.276 OA
ENDROOT
BRANCH   3   5
ATOM      5  C   LIG    1       -6.912   1.105   3.103  0.00  0.00    +0.117 C 
BRANCH   5   6
ATOM      6  C   LIG    1       -8.249   1.849   3.113  0.00  0.00    +0.138 C 
BRANCH   6   7
ATOM      7  N   LIG    1       -8.665   2.086   4.498  0.00  0.00    -0.274 N 
ATOM      8  C   LIG    1       -8.352   3.201   5.274  0.00  0.00    +0.090 A 
ATOM      9  C   LIG    1       -8.957   3.005   6.516  0.00  0.00    +0.157 A 
ATOM     10  C   LIG    1       -8.820   3.965   7.506  0.00  0.00    +0.048 A 
ATOM     11  C   LIG    1       -8.093   5.113   7.257  0.00  0.00    +0.004 A 
ATOM     12  C   LIG    1       -7.500   5.310   6.023  0.00  0.00    +0.002 A 
ATOM     13  O   LIG    1       -9.593   1.809   6.469  0.00  0.00    -0.407 OA
ATOM     14  C   LIG    1       -7.630   4.358   5.030  0.00  0.00    +0.030 A 
ATOM     15  C   LIG    1       -9.415   1.262   5.256  0.00  0.00    +0.421 A 
ATOM     16  O   LIG    1       -9.862   0.189   4.898  0.00  0.00    -0.223 OA
ENDBRANCH   6   7
ENDBRANCH   5   6
ENDBRANCH   3   5
BRANCH   1  17
ATOM     17  C   LIG    1       -4.912  -0.019   0.038  0.00  0.00    +0.139 C 
BRANCH  17  18
ATOM     18  C   LIG    1       -3.596  -0.752   0.027  0.00  0.00    -0.029 A 
ATOM     19  C   LIG    1       -3.575  -2.135   0.026  0.00  0.00    +0.005 A 
ATOM     20  C   LIG    1       -2.369  -2.811   0.016  0.00  0.00    +0.002 A 
ATOM     21  C   LIG    1       -1.181  -2.108   0.008  0.00  0.00    +0.023 A 
ATOM     22  C   LIG    1       -1.198  -0.719   0.010  0.00  0.00    +0.030 A 
ATOM     23  C   LIG    1       -2.411  -0.042   0.025  0.00  0.00    +0.028 A 
BRANCH  22  24
ATOM     24  N   LIG    1        0.002  -0.004   0.002  0.00  0.00    -0.336 N 
ATOM     25  C   LIG    1       -0.018   1.461   0.010  0.00  0.00    +0.129 C 
ATOM     26  C   LIG    1        1.281  -0.719  -0.014  0.00  0.00    +0.129 C 
ENDBRANCH  22  24
ENDBRANCH  17  18
ENDBRANCH   1  17
TORSDOF 6
