REMARK  Name = ZINC000012980181
REMARK                            x       y       z     vdW  Elec       q    Type
REMARK                         _______ _______ _______ _____ _____    ______ ____
ROOT
ATOM      1  C   LIG    1        0.507  -2.046   1.224  0.00  0.00    +0.078 C 
ATOM      2  C   LIG    1        1.372  -2.659   2.061  0.00  0.00    +0.021 C 
ATOM      3  C   LIG    1        2.098  -1.848   3.102  0.00  0.00    +0.061 C 
ATOM      4  N   LIG    1        1.598  -4.003   1.978  0.00  0.00    -0.273 N 
ATOM      5  H   LIG    1        2.228  -4.401   2.600  0.00  0.00    +0.156 HD
ATOM      6  C   LIG    1        1.000  -4.804   1.087  0.00  0.00    +0.304 C 
ATOM      7  O   LIG    1        1.266  -5.990   1.091  0.00  0.00    -0.252 OA
ATOM      8  N   LIG    1        0.113  -4.338   0.186  0.00  0.00    -0.288 N 
ATOM      9  H   LIG    1       -0.309  -4.935  -0.451  0.00  0.00    +0.151 HD
ATOM     10  C   LIG    1       -0.206  -2.900   0.196  0.00  0.00    +0.143 C 
ENDROOT
BRANCH  10  11
ATOM     11  C   LIG    1       -1.691  -2.755   0.408  0.00  0.00    -0.022 A 
ATOM     12  C   LIG    1       -2.344  -3.578   1.307  0.00  0.00    +0.009 A 
ATOM     13  C   LIG    1       -3.705  -3.447   1.503  0.00  0.00    +0.046 A 
ATOM     14  C   LIG    1       -4.417  -2.488   0.798  0.00  0.00    +0.130 A 
ATOM     15  C   LIG    1       -3.760  -1.662  -0.103  0.00  0.00    +0.046 A 
ATOM     16  C   LIG    1       -2.397  -1.794  -0.292  0.00  0.00    +0.009 A 
BRANCH  14  17
ATOM     17  O   LIG    1       -5.756  -2.356   0.990  0.00  0.00    -0.406 OA
BRANCH  17  18
ATOM     18  C   LIG    1       -6.424  -1.348   0.230  0.00  0.00    +0.575 C 
ATOM     19  F   LIG    1       -7.786  -1.350   0.548  0.00  0.00    -0.133 F 
ATOM     20  F   LIG    1       -5.877  -0.096   0.532  0.00  0.00    -0.133 F 
ATOM     21  F   LIG    1       -6.264  -1.609  -1.135  0.00  0.00    -0.133 F 
ENDBRANCH  17  18
ENDBRANCH  14  17
ENDBRANCH  10  11
BRANCH   1  22
ATOM     22  C   LIG    1        0.272  -0.653   1.308  0.00  0.00    +0.338 C 
ATOM     23  O   LIG    1        0.752  -0.009   2.222  0.00  0.00    -0.245 OA
BRANCH  22  24
ATOM     24  O   LIG    1       -0.486  -0.039   0.376  0.00  0.00    -0.465 OA
ATOM     25  C   LIG    1       -0.682   1.368   0.523  0.00  0.00    +0.280 C 
ENDBRANCH  22  24
ENDBRANCH   1  22
TORSDOF 5
