REMARK  Name = ZINC000082156496
REMARK                            x       y       z     vdW  Elec       q    Type
REMARK                         _______ _______ _______ _____ _____    ______ ____
ROOT
ATOM      1  O   LIG    1        0.002  -0.004   0.002  0.00  0.00    -0.276 OA
ATOM      2  C   LIG    1       -0.014   1.209   0.009  0.00  0.00    +0.216 C 
ATOM      3  N   LIG    1       -1.191   1.867   0.018  0.00  0.00    -0.294 N 
ATOM      4  C   LIG    1       -2.473   1.143   0.020  0.00  0.00    +0.144 C 
ATOM      5  C   LIG    1       -3.183   1.461   1.341  0.00  0.00    +0.162 C 
ATOM      6  C   LIG    1       -3.168   2.942   1.614  0.00  0.00    -0.013 A 
ATOM      7  C   LIG    1       -4.099   3.440   2.517  0.00  0.00    +0.006 A 
ATOM      8  C   LIG    1       -4.123   4.783   2.831  0.00  0.00    +0.000 A 
ATOM      9  C   LIG    1       -3.215   5.643   2.242  0.00  0.00    +0.000 A 
ATOM     10  C   LIG    1       -2.293   5.152   1.341  0.00  0.00    +0.005 A 
ATOM     11  C   LIG    1       -2.270   3.801   1.021  0.00  0.00    -0.024 A 
ATOM     12  C   LIG    1       -1.245   3.332   0.020  0.00  0.00    +0.143 C 
ENDROOT
BRANCH   5  13
ATOM     13  O   LIG    1       -4.537   1.011   1.263  0.00  0.00    -0.386 OA
ATOM     14  H   LIG    1       -5.049   1.160   2.070  0.00  0.00    +0.210 HD
ENDBRANCH   5  13
BRANCH   2  15
ATOM     15  C   LIG    1        1.280   1.980   0.001  0.00  0.00    +0.100 C 
BRANCH  15  16
ATOM     16  C   LIG    1        2.457   1.002  -0.016  0.00  0.00    +0.044 C 
BRANCH  16  17
ATOM     17  C   LIG    1        3.751   1.773  -0.024  0.00  0.00    -0.043 A 
ATOM     18  C   LIG    1        4.355   2.119   1.170  0.00  0.00    +0.053 A 
ATOM     19  C   LIG    1        5.549   2.823   1.165  0.00  0.00    +0.166 A 
ATOM     20  O   LIG    1        6.337   3.275   2.183  0.00  0.00    -0.453 OA
ATOM     21  C   LIG    1        7.192   4.272   1.594  0.00  0.00    +0.466 C 
ATOM     22  O   LIG    1        7.285   3.872   0.214  0.00  0.00    -0.453 OA
ATOM     23  C   LIG    1        6.131   3.190  -0.046  0.00  0.00    +0.166 A 
ATOM     24  C   LIG    1        5.517   2.845  -1.238  0.00  0.00    +0.050 A 
ATOM     25  C   LIG    1        4.329   2.137  -1.226  0.00  0.00    +0.007 A 
ENDBRANCH  16  17
ENDBRANCH  15  16
ENDBRANCH   2  15
TORSDOF 4
