REMARK  Name = ZINC000001074991
REMARK                            x       y       z     vdW  Elec       q    Type
REMARK                         _______ _______ _______ _____ _____    ______ ____
ROOT
ATOM      1  N   LIG    1       -1.307  -0.971   0.150  0.00  0.00    -0.259 N 
ATOM      2  C   LIG    1       -2.046  -1.106   1.258  0.00  0.00    +0.307 C 
ATOM      3  O   LIG    1       -1.485  -1.213   2.331  0.00  0.00    -0.252 OA
ATOM      4  N   LIG    1       -3.393  -1.127   1.223  0.00  0.00    -0.288 N 
ATOM      5  H   LIG    1       -3.910  -1.226   2.038  0.00  0.00    +0.151 HD
ATOM      6  C   LIG    1       -4.062  -0.996  -0.083  0.00  0.00    +0.144 C 
ATOM      7  C   LIG    1       -3.171  -0.847  -1.299  0.00  0.00    +0.078 C 
ATOM      8  C   LIG    1       -1.835  -0.839  -1.102  0.00  0.00    +0.024 C 
ATOM      9  C   LIG    1       -0.912  -0.692  -2.284  0.00  0.00    +0.061 C 
ENDROOT
BRANCH   6  10
ATOM     10  C   LIG    1       -4.969   0.206  -0.021  0.00  0.00    -0.020 A 
ATOM     11  C   LIG    1       -4.548   1.357   0.619  0.00  0.00    +0.009 A 
ATOM     12  C   LIG    1       -5.377   2.460   0.676  0.00  0.00    +0.048 A 
ATOM     13  C   LIG    1       -6.634   2.413   0.091  0.00  0.00    +0.150 A 
ATOM     14  C   LIG    1       -7.054   1.257  -0.551  0.00  0.00    +0.168 A 
ATOM     15  C   LIG    1       -6.219   0.159  -0.611  0.00  0.00    +0.042 A 
BRANCH  14  16
ATOM     16  N   LIG    1       -8.395   1.203  -1.177  0.00  0.00    +0.060 N 
ATOM     17  O   LIG    1       -9.129   2.174  -1.128  0.00  0.00    -0.126 OA
ATOM     18  O   LIG    1       -8.764   0.189  -1.740  0.00  0.00    -0.126 OA
ENDBRANCH  14  16
BRANCH  13  19
ATOM     19  O   LIG    1       -7.452   3.497   0.146  0.00  0.00    -0.493 OA
ATOM     20  C   LIG    1       -6.952   4.652   0.823  0.00  0.00    +0.277 C 
ENDBRANCH  13  19
ENDBRANCH   6  10
BRANCH   7  21
ATOM     21  C   LIG    1       -3.720  -0.714  -2.596  0.00  0.00    +0.339 C 
ATOM     22  O   LIG    1       -2.993  -0.480  -3.543  0.00  0.00    -0.245 OA
BRANCH  21  23
ATOM     23  O   LIG    1       -5.050  -0.848  -2.783  0.00  0.00    -0.465 OA
ATOM     24  C   LIG    1       -5.535  -0.702  -4.119  0.00  0.00    +0.280 C 
ENDBRANCH  21  23
ENDBRANCH   7  21
BRANCH   1  25
ATOM     25  C   LIG    1        0.152  -0.960   0.290  0.00  0.00    +0.111 C 
ATOM     26  C   LIG    1        0.645   0.486   0.368  0.00  0.00    +0.025 C 
ENDBRANCH   1  25
TORSDOF 6
