REMARK  Name = ZINC000012980858
REMARK                            x       y       z     vdW  Elec       q    Type
REMARK                         _______ _______ _______ _____ _____    ______ ____
ROOT
ATOM      1  C   LIG    1        1.777  -2.269   2.945  0.00  0.00    +0.160 C 
ENDROOT
BRANCH   1   2
ATOM      2  C   LIG    1        1.883  -3.766   3.082  0.00  0.00    +0.236 C 
ATOM      3  O   LIG    1        1.071  -4.373   3.747  0.00  0.00    -0.274 OA
ATOM      4  N   LIG    1        2.881  -4.430   2.466  0.00  0.00    -0.300 N 
ATOM      5  C   LIG    1        3.262  -5.839   2.286  0.00  0.00    +0.109 C 
ATOM      6  C   LIG    1        3.959  -5.424   0.980  0.00  0.00    +0.038 C 
ATOM      7  C   LIG    1        4.071  -4.064   1.683  0.00  0.00    +0.109 C 
ENDBRANCH   1   2
BRANCH   1   8
ATOM      8  N   LIG    1        1.069  -1.721   4.105  0.00  0.00    -0.300 N 
ATOM      9  C   LIG    1        1.746  -1.439   5.236  0.00  0.00    +0.246 C 
ATOM     10  O   LIG    1        2.944  -1.640   5.293  0.00  0.00    -0.270 OA
ATOM     11  H   LIG    1        0.114  -1.561   4.059  0.00  0.00    +0.150 HD
BRANCH   9  12
ATOM     12  C   LIG    1        1.033  -0.887   6.406  0.00  0.00    +0.055 A 
ATOM     13  C   LIG    1        1.732  -0.594   7.580  0.00  0.00    +0.053 A 
ATOM     14  C   LIG    1        1.059  -0.072   8.667  0.00  0.00    +0.021 A 
ATOM     15  C   LIG    1       -0.304   0.150   8.599  0.00  0.00    +0.001 A 
ATOM     16  C   LIG    1       -1.003  -0.144   7.441  0.00  0.00    +0.001 A 
ATOM     17 CL   LIG    1        3.443  -0.871   7.667  0.00  0.00    -0.083 Cl
ATOM     18  C   LIG    1       -0.343  -0.660   6.345  0.00  0.00    +0.014 A 
ENDBRANCH   9  12
ENDBRANCH   1   8
BRANCH   1  19
ATOM     19  C   LIG    1        1.005  -1.927   1.669  0.00  0.00    +0.042 C 
BRANCH  19  20
ATOM     20  C   LIG    1        1.012  -0.412   1.458  0.00  0.00    +0.071 C 
BRANCH  20  21
ATOM     21  S   LIG    1        0.097  -0.007  -0.055  0.00  0.00    -0.164 S 
ATOM     22  C   LIG    1        0.216   1.801  -0.132  0.00  0.00    +0.084 C 
ENDBRANCH  20  21
ENDBRANCH  19  20
ENDBRANCH   1  19
TORSDOF 6
