REMARK  Name = ZINC000095987152
REMARK                            x       y       z     vdW  Elec       q    Type
REMARK                         _______ _______ _______ _____ _____    ______ ____
ROOT
ATOM      1  C   LIG    1        0.443  -0.612  -1.155  0.00  0.00    +0.139 A 
ATOM      2  C   LIG    1        0.644  -1.985  -1.130  0.00  0.00    +0.101 A 
ATOM      3 BR   LIG    1       -0.135  -3.030   0.239  0.00  0.00    -0.043 Br
ATOM      4  C   LIG    1        1.409  -2.592  -2.116  0.00  0.00    +0.139 A 
ATOM      5  C   LIG    1        1.980  -1.827  -3.120  0.00  0.00    +0.070 A 
ATOM      6  C   LIG    1        1.784  -0.453  -3.143  0.00  0.00    +0.040 A 
ATOM      7  C   LIG    1        1.015   0.154  -2.159  0.00  0.00    +0.070 A 
ENDROOT
BRANCH   6   8
ATOM      8  N   LIG    1        2.362   0.321  -4.156  0.00  0.00    -0.285 N 
ATOM      9  C   LIG    1        2.773   1.577  -3.893  0.00  0.00    +0.223 C 
ATOM     10  O   LIG    1        2.731   2.004  -2.759  0.00  0.00    -0.275 OA
ATOM     11  H   LIG    1        2.466  -0.048  -5.047  0.00  0.00    +0.155 HD
BRANCH   9  12
ATOM     12  C   LIG    1        3.285   2.451  -5.009  0.00  0.00    +0.153 C 
BRANCH  12  13
ATOM     13  C   LIG    1        3.678   3.796  -4.454  0.00  0.00    +0.072 A 
ATOM     14  N   LIG    1        2.911   4.589  -3.750  0.00  0.00    -0.178 NA
ATOM     15  N   LIG    1        3.647   5.736  -3.428  0.00  0.00    -0.284 N 
ATOM     16  H   LIG    1        3.328   6.492  -2.912  0.00  0.00    +0.188 HD
ATOM     17  C   LIG    1        4.879   5.603  -3.962  0.00  0.00    +0.105 A 
ATOM     18  C   LIG    1        4.926   4.409  -4.598  0.00  0.00    +0.044 A 
ENDBRANCH  12  13
ENDBRANCH   9  12
ENDBRANCH   6   8
BRANCH   1  19
ATOM     19  O   LIG    1       -0.309  -0.018  -0.192  0.00  0.00    -0.494 OA
ATOM     20  C   LIG    1       -0.474   1.399  -0.280  0.00  0.00    +0.277 C 
ENDBRANCH   1  19
BRANCH   4  21
ATOM     21  O   LIG    1        1.601  -3.938  -2.094  0.00  0.00    -0.494 OA
ATOM     22  C   LIG    1        2.404  -4.495  -3.137  0.00  0.00    +0.277 C 
ENDBRANCH   4  21
TORSDOF 5
