REMARK  Name = ZINC000025799800
REMARK                            x       y       z     vdW  Elec       q    Type
REMARK                         _______ _______ _______ _____ _____    ______ ____
ROOT
ATOM      1  N   LIG    1       -1.328  -5.328  -3.657  0.00  0.00    -0.294 NA
ATOM      2  C   LIG    1       -2.216  -5.571  -2.511  0.00  0.00    +0.100 C 
ATOM      3  C   LIG    1       -3.652  -5.742  -3.010  0.00  0.00    +0.100 C 
ATOM      4  N   LIG    1       -3.708  -6.860  -3.961  0.00  0.00    -0.295 NA
ATOM      5  C   LIG    1       -2.821  -6.617  -5.107  0.00  0.00    +0.100 C 
ATOM      6  C   LIG    1       -1.384  -6.446  -4.609  0.00  0.00    +0.100 C 
ENDROOT
BRANCH   4   7
ATOM      7  C   LIG    1       -5.087  -7.105  -4.405  0.00  0.00    +0.127 C 
BRANCH   7   8
ATOM      8  C   LIG    1       -5.144  -8.397  -5.178  0.00  0.00    +0.004 A 
ATOM      9  C   LIG    1       -5.379  -9.600  -4.651  0.00  0.00    +0.012 A 
ATOM     10  C   LIG    1       -5.384 -10.645  -5.558  0.00  0.00    +0.008 A 
ATOM     11  C   LIG    1       -5.152 -10.291  -6.824  0.00  0.00    +0.045 A 
ATOM     12  S   LIG    1       -4.917  -8.550  -6.916  0.00  0.00    -0.100 S 
ENDBRANCH   7   8
ENDBRANCH   4   7
BRANCH   1  13
ATOM     13  C   LIG    1        0.051  -5.083  -3.213  0.00  0.00    +0.140 C 
BRANCH  13  14
ATOM     14  C   LIG    1        0.043  -4.106  -2.066  0.00  0.00    +0.064 A 
ATOM     15  C   LIG    1        0.054  -4.493  -0.789  0.00  0.00    +0.073 A 
ATOM     16  S   LIG    1        0.046  -3.048   0.220  0.00  0.00    -0.060 S 
ATOM     17  C   LIG    1        0.019  -2.062  -1.177  0.00  0.00    +0.165 A 
ATOM     18  N   LIG    1        0.024  -2.798  -2.243  0.00  0.00    -0.228 NA
BRANCH  17  19
ATOM     19  N   LIG    1        0.000  -0.672  -1.169  0.00  0.00    -0.265 N 
ATOM     20  C   LIG    1        0.002  -0.004   0.002  0.00  0.00    +0.216 C 
ATOM     21  O   LIG    1        0.020  -0.616   1.049  0.00  0.00    -0.276 OA
ATOM     22  C   LIG    1       -0.018   1.503   0.010  0.00  0.00    +0.109 C 
ATOM     23  H   LIG    1       -0.015  -0.182  -2.006  0.00  0.00    +0.157 HD
ENDBRANCH  17  19
ENDBRANCH  13  14
ENDBRANCH   1  13
TORSDOF 5
