REMARK  Name = ZINC000084688984
REMARK                            x       y       z     vdW  Elec       q    Type
REMARK                         _______ _______ _______ _____ _____    ______ ____
ROOT
ATOM      1  N   LIG    1        4.898   2.114   3.437  0.00  0.00    -0.285 NA
ENDROOT
BRANCH   1   2
ATOM      2  C   LIG    1        4.453   1.445   4.667  0.00  0.00    +0.058 C 
ATOM      3  C   LIG    1        5.288   0.268   5.173  0.00  0.00    +0.020 C 
ATOM      4  C   LIG    1        3.918   0.018   4.540  0.00  0.00    +0.020 C 
ENDBRANCH   1   2
BRANCH   1   5
ATOM      5  C   LIG    1        6.140   2.866   3.667  0.00  0.00    +0.161 C 
BRANCH   5   6
ATOM      6  C   LIG    1        7.289   1.903   3.819  0.00  0.00    +0.150 A 
ATOM      7  N   LIG    1        7.685   1.534   5.025  0.00  0.00    -0.198 NA
ATOM      8  C   LIG    1        8.699   0.684   5.163  0.00  0.00    +0.217 A 
ATOM      9  N   LIG    1        9.314   0.205   4.087  0.00  0.00    -0.181 NA
ATOM     10  C   LIG    1        8.913   0.578   2.876  0.00  0.00    +0.222 A 
ATOM     11  N   LIG    1        7.894   1.425   2.746  0.00  0.00    -0.198 NA
BRANCH   8  12
ATOM     12  N   LIG    1        9.112   0.299   6.423  0.00  0.00    -0.327 N 
ATOM     13  H   LIG    1        8.662   0.648   7.208  0.00  0.00    +0.145 HD
ATOM     14  H   LIG    1        9.851  -0.321   6.523  0.00  0.00    +0.145 HD
ENDBRANCH   8  12
BRANCH  10  15
ATOM     15  N   LIG    1        9.549   0.084   1.756  0.00  0.00    -0.306 N 
ATOM     16  C   LIG    1       10.666  -0.853   1.900  0.00  0.00    +0.132 C 
ATOM     17  C   LIG    1        9.106   0.495   0.421  0.00  0.00    +0.132 C 
ENDBRANCH  10  15
ENDBRANCH   5   6
ENDBRANCH   1   5
BRANCH   1  18
ATOM     18  C   LIG    1        3.846   2.988   2.902  0.00  0.00    +0.159 C 
BRANCH  18  19
ATOM     19  C   LIG    1        2.678   2.149   2.450  0.00  0.00    +0.119 A 
ATOM     20  C   LIG    1        1.628   1.789   3.210  0.00  0.00    +0.046 A 
ATOM     21  C   LIG    1        0.777   1.012   2.391  0.00  0.00    +0.045 A 
ATOM     22  C   LIG    1        1.359   0.943   1.180  0.00  0.00    +0.109 A 
ATOM     23  O   LIG    1        2.513   1.629   1.224  0.00  0.00    -0.463 OA
BRANCH  22  24
ATOM     24  C   LIG    1        0.812   0.214  -0.020  0.00  0.00    +0.058 C 
ATOM     25  C   LIG    1        1.723   0.082  -1.243  0.00  0.00    +0.015 C 
ATOM     26  C   LIG    1        0.528   1.037  -1.279  0.00  0.00    -0.003 C 
ATOM     27  C   LIG    1        0.822   2.538  -1.222  0.00  0.00    +0.008 C 
ENDBRANCH  22  24
ENDBRANCH  18  19
ENDBRANCH   1  18
TORSDOF 8
