REMARK  Name = ZINC000058197079
REMARK                            x       y       z     vdW  Elec       q    Type
REMARK                         _______ _______ _______ _____ _____    ______ ____
ROOT
ATOM      1  N   LIG    1        2.326  -0.389   1.432  0.00  0.00    -0.299 N 
ATOM      2  C   LIG    1        2.805   0.762   2.014  0.00  0.00    +0.165 A 
ATOM      3  N   LIG    1        3.879   1.115   1.346  0.00  0.00    -0.128 NA
ATOM      4  N   LIG    1        4.096   0.280   0.394  0.00  0.00    -0.122 NA
ATOM      5  C   LIG    1        3.177  -0.660   0.399  0.00  0.00    +0.193 A 
ENDROOT
BRANCH   2   6
ATOM      6  C   LIG    1        2.226   1.464   3.179  0.00  0.00    +0.019 A 
ATOM      7  C   LIG    1        3.056   2.146   4.071  0.00  0.00    +0.011 A 
ATOM      8  C   LIG    1        2.508   2.799   5.156  0.00  0.00    +0.001 A 
ATOM      9  C   LIG    1        1.140   2.779   5.362  0.00  0.00    +0.000 A 
ATOM     10  C   LIG    1        0.312   2.105   4.482  0.00  0.00    +0.001 A 
ATOM     11  C   LIG    1        0.846   1.453   3.389  0.00  0.00    +0.011 A 
ENDBRANCH   2   6
BRANCH   1  12
ATOM     12  C   LIG    1        1.147  -1.159   1.833  0.00  0.00    +0.088 C 
ATOM     13  C   LIG    1        1.572  -2.573   2.232  0.00  0.00    +0.031 C 
BRANCH  12  14
ATOM     14  C   LIG    1        0.164  -1.233   0.663  0.00  0.00    +0.021 C 
ATOM     15  C   LIG    1       -0.357   0.171   0.345  0.00  0.00    +0.006 C 
ENDBRANCH  12  14
ENDBRANCH   1  12
BRANCH   5  16
ATOM     16  S   LIG    1        3.064  -2.018  -0.719  0.00  0.00    -0.077 S 
BRANCH  16  17
ATOM     17  C   LIG    1        4.508  -1.689  -1.760  0.00  0.00    +0.173 C 
BRANCH  17  18
ATOM     18  C   LIG    1        4.616  -2.755  -2.820  0.00  0.00    +0.231 C 
ATOM     19  O   LIG    1        3.798  -3.648  -2.867  0.00  0.00    -0.274 OA
ATOM     20  N   LIG    1        5.622  -2.714  -3.716  0.00  0.00    -0.240 N 
ATOM     21  H   LIG    1        6.276  -1.999  -3.678  0.00  0.00    +0.159 HD
ATOM     22  C   LIG    1        5.718  -3.667  -4.664  0.00  0.00    +0.306 C 
ATOM     23  O   LIG    1        4.899  -4.563  -4.711  0.00  0.00    -0.252 OA
ATOM     24  N   LIG    1        6.724  -3.627  -5.560  0.00  0.00    -0.302 N 
ATOM     25  H   LIG    1        7.379  -2.912  -5.522  0.00  0.00    +0.150 HD
ATOM     26  C   LIG    1        6.830  -4.663  -6.590  0.00  0.00    +0.129 C 
ENDBRANCH  17  18
ENDBRANCH  16  17
ENDBRANCH   5  16
TORSDOF 6
