REMARK  Name = ZINC000082134833
REMARK                            x       y       z     vdW  Elec       q    Type
REMARK                         _______ _______ _______ _____ _____    ______ ____
ROOT
ATOM      1  N   LIG    1       -0.149  -2.398  -0.062  0.00  0.00    -0.265 N 
ATOM      2  C   LIG    1        0.677  -2.676   0.947  0.00  0.00    +0.237 C 
ATOM      3  C   LIG    1        0.355  -3.682   2.018  0.00  0.00    +0.204 C 
ATOM      4  N   LIG    1       -1.067  -4.043   1.922  0.00  0.00    -0.287 N 
ATOM      5  C   LIG    1       -1.835  -4.165   3.022  0.00  0.00    +0.247 C 
ATOM      6  O   LIG    1       -3.031  -4.354   2.910  0.00  0.00    -0.270 OA
ATOM      7  C   LIG    1       -1.617  -4.265   0.574  0.00  0.00    +0.128 C 
ATOM      8  O   LIG    1        1.734  -2.083   1.009  0.00  0.00    -0.274 OA
ATOM      9  C   LIG    1       -1.483  -2.963  -0.217  0.00  0.00    +0.133 C 
ENDROOT
BRANCH   5  10
ATOM     10  C   LIG    1       -1.225  -4.071   4.363  0.00  0.00    +0.037 A 
ATOM     11  C   LIG    1       -1.951  -3.529   5.427  0.00  0.00    +0.020 A 
ATOM     12  C   LIG    1       -1.380  -3.447   6.677  0.00  0.00    -0.008 A 
ATOM     13  C   LIG    1       -2.164  -2.866   7.826  0.00  0.00    +0.047 C 
ATOM     14  C   LIG    1       -0.080  -3.894   6.879  0.00  0.00    +0.120 A 
ATOM     15  C   LIG    1        0.648  -4.429   5.823  0.00  0.00    +0.046 A 
ATOM     16  C   LIG    1        0.082  -4.519   4.571  0.00  0.00    +0.016 A 
BRANCH  14  17
ATOM     17  O   LIG    1        0.482  -3.807   8.112  0.00  0.00    -0.507 OA
ATOM     18  H   LIG    1        0.951  -2.978   8.273  0.00  0.00    +0.292 HD
ENDBRANCH  14  17
ENDBRANCH   5  10
BRANCH   1  19
ATOM     19  C   LIG    1        0.299  -1.506  -1.045  0.00  0.00    +0.078 A 
ATOM     20  C   LIG    1        0.055  -0.141  -0.913  0.00  0.00    +0.141 A 
ATOM     21  C   LIG    1        0.501   0.736  -1.887  0.00  0.00    +0.047 A 
ATOM     22  C   LIG    1        1.181   0.256  -2.991  0.00  0.00    +0.004 A 
ATOM     23  C   LIG    1        1.419  -1.099  -3.126  0.00  0.00    +0.002 A 
ATOM     24  C   LIG    1        0.977  -1.981  -2.158  0.00  0.00    +0.027 A 
BRANCH  20  25
ATOM     25  O   LIG    1       -0.615   0.330   0.173  0.00  0.00    -0.493 OA
ATOM     26  C   LIG    1       -0.829   1.741   0.242  0.00  0.00    +0.277 C 
ENDBRANCH  20  25
ENDBRANCH   1  19
TORSDOF 4
