REMARK  Name = ZINC000095989106
REMARK                            x       y       z     vdW  Elec       q    Type
REMARK                         _______ _______ _______ _____ _____    ______ ____
ROOT
ATOM      1  N   LIG    1       -2.402  -0.044   0.018  0.00  0.00    -0.265 N 
ATOM      2  H   LIG    1       -2.430   0.922   0.096  0.00  0.00    +0.157 HD
ATOM      3  C   LIG    1       -3.548  -0.745  -0.087  0.00  0.00    +0.307 C 
ATOM      4  O   LIG    1       -3.519  -1.961  -0.098  0.00  0.00    -0.252 OA
ATOM      5  N   LIG    1       -4.727  -0.099  -0.180  0.00  0.00    -0.281 N 
ATOM      6  C   LIG    1       -5.999  -0.839  -0.181  0.00  0.00    +0.141 C 
ATOM      7  C   LIG    1       -6.837  -0.368  -1.369  0.00  0.00    +0.140 C 
ATOM      8  O   LIG    1       -6.932   1.058  -1.345  0.00  0.00    -0.373 OA
ATOM      9  C   LIG    1       -5.678   1.731  -1.479  0.00  0.00    +0.179 C 
ATOM     10  C   LIG    1       -4.780   1.368  -0.291  0.00  0.00    +0.137 C 
ENDROOT
BRANCH   1  11
ATOM     11  C   LIG    1       -1.169  -0.712   0.013  0.00  0.00    +0.103 A 
ATOM     12  C   LIG    1       -0.889  -1.702   0.980  0.00  0.00    +0.273 A 
ATOM     13  O   LIG    1       -1.723  -1.982   1.826  0.00  0.00    -0.266 OA
ATOM     14  N   LIG    1        0.298  -2.338   0.967  0.00  0.00    -0.317 N 
ATOM     15  C   LIG    1        0.580  -3.365   1.973  0.00  0.00    +0.152 C 
ATOM     16  C   LIG    1        1.237  -2.038   0.030  0.00  0.00    +0.089 A 
ATOM     17  C   LIG    1        1.000  -1.099  -0.913  0.00  0.00    +0.023 A 
ATOM     18  C   LIG    1       -0.223  -0.412  -0.928  0.00  0.00    -0.023 A 
ATOM     19  C   LIG    1       -0.493   0.640  -1.972  0.00  0.00    +0.046 C 
ENDBRANCH   1  11
BRANCH   7  20
ATOM     20  C   LIG    1       -8.239  -0.975  -1.282  0.00  0.00    +0.068 C 
BRANCH  20  21
ATOM     21  C   LIG    1       -9.023  -0.607  -2.515  0.00  0.00    -0.045 A 
ATOM     22  C   LIG    1       -9.773   0.554  -2.536  0.00  0.00    +0.004 A 
ATOM     23  C   LIG    1      -10.492   0.892  -3.667  0.00  0.00    +0.000 A 
ATOM     24  C   LIG    1      -10.462   0.069  -4.777  0.00  0.00    +0.000 A 
ATOM     25  C   LIG    1       -9.711  -1.092  -4.757  0.00  0.00    +0.000 A 
ATOM     26  C   LIG    1       -8.988  -1.427  -3.627  0.00  0.00    +0.004 A 
ENDBRANCH  20  21
ENDBRANCH   7  20
TORSDOF 3
