REMARK  Name = ZINC000012984782
REMARK                            x       y       z     vdW  Elec       q    Type
REMARK                         _______ _______ _______ _____ _____    ______ ____
ROOT
ATOM      1  N   LIG    1        2.407   1.043  -0.015  0.00  0.00    -0.186 N 
ATOM      2  N   LIG    1        3.050   0.503   1.105  0.00  0.00    -0.042 NA
ATOM      3  N   LIG    1        3.957  -0.250   0.732  0.00  0.00    -0.038 NA
ATOM      4  N   LIG    1        3.993  -0.274  -0.668  0.00  0.00    -0.159 N 
ATOM      5  C   LIG    1        3.010   0.538  -1.113  0.00  0.00    +0.369 A 
ATOM      6  O   LIG    1        2.729   0.775  -2.274  0.00  0.00    -0.243 OA
ENDROOT
BRANCH   4   7
ATOM      7  C   LIG    1        4.883  -1.011  -1.462  0.00  0.00    +0.091 A 
ATOM      8  C   LIG    1        6.255  -0.870  -1.285  0.00  0.00    +0.067 A 
ATOM      9 CL   LIG    1        6.868   0.212  -0.074  0.00  0.00    -0.081 Cl
ATOM     10  C   LIG    1        7.129  -1.602  -2.066  0.00  0.00    +0.022 A 
ATOM     11  C   LIG    1        6.640  -2.464  -3.030  0.00  0.00    +0.002 A 
ATOM     12  C   LIG    1        5.276  -2.602  -3.212  0.00  0.00    +0.002 A 
ATOM     13  C   LIG    1        4.397  -1.877  -2.430  0.00  0.00    +0.029 A 
ENDBRANCH   4   7
BRANCH   1  14
ATOM     14  C   LIG    1        1.280   1.980   0.001  0.00  0.00    +0.230 C 
BRANCH  14  15
ATOM     15  C   LIG    1       -0.014   1.208   0.009  0.00  0.00    +0.185 C 
ATOM     16  O   LIG    1        0.002  -0.004   0.002  0.00  0.00    -0.290 OA
BRANCH  15  17
ATOM     17  C   LIG    1       -1.297   1.926   0.019  0.00  0.00    +0.019 A 
ATOM     18  C   LIG    1       -2.502   1.213   0.021  0.00  0.00    +0.014 A 
ATOM     19  C   LIG    1       -3.700   1.892   0.036  0.00  0.00    +0.039 A 
ATOM     20  C   LIG    1       -3.715   3.279   0.038  0.00  0.00    +0.123 A 
ATOM     21  F   LIG    1       -4.894   3.938   0.048  0.00  0.00    -0.205 F 
ATOM     22  C   LIG    1       -2.526   3.992   0.030  0.00  0.00    +0.039 A 
ATOM     23  C   LIG    1       -1.320   3.325   0.021  0.00  0.00    +0.014 A 
ENDBRANCH  15  17
ENDBRANCH  14  15
ENDBRANCH   1  14
TORSDOF 4
