REMARK  Name = ZINC000095988777
REMARK                            x       y       z     vdW  Elec       q    Type
REMARK                         _______ _______ _______ _____ _____    ______ ____
ROOT
ATOM      1  N   LIG    1        0.310  -4.114   0.020  0.00  0.00    -0.217 N 
ATOM      2  H   LIG    1       -0.091  -4.629   0.737  0.00  0.00    +0.173 HD
ENDROOT
BRANCH   1   3
ATOM      3  C   LIG    1        0.165  -2.721  -0.007  0.00  0.00    +0.088 A 
ATOM      4  C   LIG    1        0.152  -1.986   1.182  0.00  0.00    +0.144 A 
ATOM      5  N   LIG    1        0.020  -0.671   1.156  0.00  0.00    -0.235 NA
ATOM      6  C   LIG    1       -0.114  -0.009   0.021  0.00  0.00    +0.040 A 
ATOM      7  C   LIG    1       -0.266   1.490   0.050  0.00  0.00    +0.065 C 
ATOM      8  C   LIG    1       -0.110  -0.668  -1.190  0.00  0.00    +0.025 A 
ATOM      9  C   LIG    1        0.031  -2.050  -1.214  0.00  0.00    +0.030 A 
BRANCH   4  10
ATOM     10  N   LIG    1        0.285  -2.644   2.403  0.00  0.00    -0.320 N 
ATOM     11  C   LIG    1       -0.907  -3.103   3.121  0.00  0.00    +0.130 C 
ATOM     12  C   LIG    1        1.616  -2.877   2.968  0.00  0.00    +0.130 C 
ENDBRANCH   4  10
ENDBRANCH   1   3
BRANCH   1  13
ATOM     13  S   LIG    1        1.166  -4.880  -1.173  0.00  0.00    +0.047 S 
ATOM     14  O   LIG    1        1.080  -6.258  -0.836  0.00  0.00    -0.155 OA
ATOM     15  O   LIG    1        0.605  -4.384  -2.380  0.00  0.00    -0.155 OA
BRANCH  13  16
ATOM     16  C   LIG    1        2.865  -4.279  -0.967  0.00  0.00    +0.223 C 
BRANCH  16  17
ATOM     17  C   LIG    1        3.752  -4.913  -2.008  0.00  0.00    -0.025 A 
ATOM     18  C   LIG    1        4.382  -6.114  -1.737  0.00  0.00    +0.006 A 
ATOM     19  C   LIG    1        5.195  -6.700  -2.686  0.00  0.00    +0.019 A 
ATOM     20  C   LIG    1        5.380  -6.077  -3.922  0.00  0.00    +0.052 A 
ATOM     21  C   LIG    1        4.740  -4.866  -4.189  0.00  0.00    +0.019 A 
ATOM     22  C   LIG    1        3.926  -4.294  -3.233  0.00  0.00    +0.006 A 
BRANCH  20  23
ATOM     23  C   LIG    1        6.222  -6.680  -4.911  0.00  0.00    +0.099 C 
ATOM     24  N   LIG    1        6.890  -7.157  -5.696  0.00  0.00    -0.191 NA
ENDBRANCH  20  23
ENDBRANCH  16  17
ENDBRANCH  13  16
ENDBRANCH   1  13
TORSDOF 6
