REMARK  Name = ZINC000012974589
REMARK                            x       y       z     vdW  Elec       q    Type
REMARK                         _______ _______ _______ _____ _____    ______ ____
ROOT
ATOM      1  C   LIG    1       -5.972  -0.845  -3.918  0.00  0.00    +0.173 A 
ATOM      2  C   LIG    1       -7.348  -0.657  -4.191  0.00  0.00    +0.008 A 
ATOM      3  C   LIG    1       -8.699  -0.457  -3.549  0.00  0.00    +0.040 C 
ATOM      4  C   LIG    1       -9.598   0.099  -4.676  0.00  0.00    +0.011 C 
ATOM      5  C   LIG    1       -8.902  -0.452  -5.941  0.00  0.00    +0.056 C 
ATOM      6  C   LIG    1       -7.458  -0.653  -5.537  0.00  0.00    +0.049 A 
ATOM      7  N   LIG    1       -6.207  -0.838  -6.040  0.00  0.00    -0.236 N 
ATOM      8  N   LIG    1       -5.359  -0.947  -5.082  0.00  0.00    -0.159 NA
ENDROOT
BRANCH   7   9
ATOM      9  C   LIG    1       -5.891  -0.900  -7.403  0.00  0.00    +0.066 A 
ATOM     10  C   LIG    1       -4.688  -0.382  -7.863  0.00  0.00    +0.028 A 
ATOM     11  C   LIG    1       -4.377  -0.451  -9.207  0.00  0.00    +0.002 A 
ATOM     12  C   LIG    1       -5.267  -1.024 -10.096  0.00  0.00    +0.000 A 
ATOM     13  C   LIG    1       -6.469  -1.536  -9.642  0.00  0.00    +0.002 A 
ATOM     14  C   LIG    1       -6.783  -1.476  -8.299  0.00  0.00    +0.028 A 
ENDBRANCH   7   9
BRANCH   1  15
ATOM     15  C   LIG    1       -5.344  -0.919  -2.585  0.00  0.00    +0.360 C 
ATOM     16  O   LIG    1       -6.027  -0.815  -1.586  0.00  0.00    -0.243 OA
BRANCH  15  17
ATOM     17  O   LIG    1       -4.014  -1.102  -2.477  0.00  0.00    -0.448 OA
BRANCH  17  18
ATOM     18  C   LIG    1       -3.465  -1.164  -1.134  0.00  0.00    +0.259 C 
ATOM     19  C   LIG    1       -3.469  -2.615  -0.648  0.00  0.00    +0.062 C 
BRANCH  18  20
ATOM     20  C   LIG    1       -2.051  -0.643  -1.145  0.00  0.00    +0.254 C 
ATOM     21  N   LIG    1       -1.372  -0.511   0.012  0.00  0.00    -0.310 N 
ATOM     22  H   LIG    1       -1.794  -0.752   0.852  0.00  0.00    +0.149 HD
ATOM     23  O   LIG    1       -1.524  -0.341  -2.194  0.00  0.00    -0.272 OA
BRANCH  21  24
ATOM     24  C   LIG    1        0.002  -0.004   0.002  0.00  0.00    +0.067 C 
ATOM     25  C   LIG    1        0.742  -0.511   1.242  0.00  0.00    +0.027 C 
ATOM     26  C   LIG    1       -0.019   1.526   0.010  0.00  0.00    +0.027 C 
ENDBRANCH  21  24
ENDBRANCH  18  20
ENDBRANCH  17  18
ENDBRANCH  15  17
ENDBRANCH   1  15
TORSDOF 6
