REMARK  Name = ZINC000025823470
REMARK                            x       y       z     vdW  Elec       q    Type
REMARK                         _______ _______ _______ _____ _____    ______ ____
ROOT
ATOM      1  O   LIG    1        0.058  -4.133  -0.059  0.00  0.00    -0.484 OA
ENDROOT
BRANCH   1   2
ATOM      2  C   LIG    1        0.040  -2.778  -0.038  0.00  0.00    +0.132 A 
ATOM      3  C   LIG    1        0.036  -2.091   1.194  0.00  0.00    +0.063 A 
ATOM      4  C   LIG    1        0.050  -2.613   2.566  0.00  0.00    +0.168 C 
ATOM      5  C   LIG    1        0.036  -1.440   3.516  0.00  0.00    +0.087 C 
ATOM      6  C   LIG    1        0.021  -0.193   2.621  0.00  0.00    +0.024 C 
ATOM      7  C   LIG    1        1.268   0.656   2.880  0.00  0.00    +0.013 C 
ATOM      8  O   LIG    1        0.063  -3.784   2.882  0.00  0.00    -0.292 OA
ATOM      9  C   LIG    1        0.023  -0.695   1.196  0.00  0.00    -0.027 A 
ATOM     10  C   LIG    1        0.002  -0.004   0.002  0.00  0.00    -0.046 A 
ATOM     11  C   LIG    1       -0.018   1.503   0.010  0.00  0.00    +0.044 C 
ATOM     12  C   LIG    1        0.006  -0.685  -1.204  0.00  0.00    +0.007 A 
ATOM     13  C   LIG    1        0.024  -2.065  -1.225  0.00  0.00    +0.046 A 
ENDBRANCH   1   2
BRANCH   1  14
ATOM     14  C   LIG    1        0.061  -4.762  -1.343  0.00  0.00    +0.305 C 
BRANCH  14  15
ATOM     15  C   LIG    1        0.083  -6.259  -1.169  0.00  0.00    +0.173 A 
ATOM     16  N   LIG    1       -1.053  -6.929  -1.088  0.00  0.00    -0.196 NA
ATOM     17  C   LIG    1       -1.038  -8.252  -0.940  0.00  0.00    +0.222 A 
ATOM     18  N   LIG    1        0.121  -8.897  -0.864  0.00  0.00    -0.181 NA
ATOM     19  C   LIG    1        1.261  -8.219  -0.940  0.00  0.00    +0.217 A 
ATOM     20  N   LIG    1        1.238  -6.896  -1.093  0.00  0.00    -0.196 NA
BRANCH  17  21
ATOM     21  N   LIG    1       -2.225  -8.952  -0.861  0.00  0.00    -0.306 N 
ATOM     22  C   LIG    1       -2.207 -10.407  -0.692  0.00  0.00    +0.132 C 
ATOM     23  C   LIG    1       -3.502  -8.239  -0.946  0.00  0.00    +0.132 C 
ENDBRANCH  17  21
BRANCH  19  24
ATOM     24  N   LIG    1        2.467  -8.884  -0.860  0.00  0.00    -0.327 N 
ATOM     25  H   LIG    1        2.483  -9.847  -0.749  0.00  0.00    +0.145 HD
ATOM     26  H   LIG    1        3.299  -8.388  -0.916  0.00  0.00    +0.145 HD
ENDBRANCH  19  24
ENDBRANCH  14  15
ENDBRANCH   1  14
TORSDOF 5
