REMARK  Name = ZINC000134404772
REMARK                            x       y       z     vdW  Elec       q    Type
REMARK                         _______ _______ _______ _____ _____    ______ ____
ROOT
ATOM      1  C   LIG    1        0.386  -0.495   2.840  0.00  0.00    +0.110 C 
ATOM      2  C   LIG    1       -0.937  -0.171   3.566  0.00  0.00    +0.029 C 
ATOM      3  C   LIG    1       -0.551   1.026   4.474  0.00  0.00    +0.021 C 
ATOM      4  C   LIG    1        0.467   1.779   3.581  0.00  0.00    +0.109 C 
ATOM      5  N   LIG    1        1.220   0.715   2.887  0.00  0.00    -0.287 N 
ATOM      6  C   LIG    1        2.464   0.835   2.381  0.00  0.00    +0.302 C 
ATOM      7  O   LIG    1        2.988  -0.110   1.829  0.00  0.00    -0.265 OA
ENDROOT
BRANCH   1   8
ATOM      8  C   LIG    1        0.106  -0.870   1.407  0.00  0.00    +0.016 A 
ATOM      9  C   LIG    1        0.200  -2.110   0.876  0.00  0.00    +0.038 A 
ATOM     10  C   LIG    1        0.608  -3.362   1.609  0.00  0.00    +0.065 C 
ATOM     11  N   LIG    1       -0.130  -2.025  -0.430  0.00  0.00    -0.281 N 
ATOM     12  N   LIG    1       -0.443  -0.688  -0.709  0.00  0.00    -0.179 NA
ATOM     13  H   LIG    1       -0.148  -2.759  -1.063  0.00  0.00    +0.189 HD
ATOM     14  C   LIG    1       -0.305   0.003   0.394  0.00  0.00    +0.065 A 
ATOM     15  C   LIG    1       -0.540   1.484   0.544  0.00  0.00    +0.068 C 
ENDBRANCH   1   8
BRANCH   6  16
ATOM     16  C   LIG    1        3.196   2.131   2.499  0.00  0.00    +0.303 C 
ATOM     17  O   LIG    1        2.671   3.076   3.051  0.00  0.00    -0.265 OA
ATOM     18  N   LIG    1        4.439   2.252   1.993  0.00  0.00    -0.276 N 
ATOM     19  H   LIG    1        4.829   1.522   1.486  0.00  0.00    +0.155 HD
BRANCH  18  20
ATOM     20  C   LIG    1        5.167   3.427   2.199  0.00  0.00    +0.055 A 
ATOM     21  C   LIG    1        4.794   4.323   3.198  0.00  0.00    +0.027 A 
ATOM     22  C   LIG    1        5.547   5.474   3.364  0.00  0.00    +0.025 A 
ATOM     23  C   LIG    1        6.634   5.694   2.539  0.00  0.00    +0.039 A 
ATOM     24  C   LIG    1        7.458   6.945   2.713  0.00  0.00    +0.065 C 
ATOM     25  N   LIG    1        6.961   4.826   1.602  0.00  0.00    -0.255 NA
ATOM     26  C   LIG    1        6.276   3.716   1.413  0.00  0.00    +0.060 A 
ATOM     27  C   LIG    1        6.693   2.757   0.329  0.00  0.00    +0.067 C 
ENDBRANCH  18  20
ENDBRANCH   6  16
TORSDOF 3
