REMARK  Name = ZINC000025709555
REMARK                            x       y       z     vdW  Elec       q    Type
REMARK                         _______ _______ _______ _____ _____    ______ ____
ROOT
ATOM      1  C   LIG    1        0.997  -1.850  -1.726  0.00  0.00    -0.027 A 
ATOM      2  C   LIG    1        2.093  -2.521  -1.214  0.00  0.00    +0.006 A 
ATOM      3  C   LIG    1        2.207  -3.887  -1.375  0.00  0.00    +0.015 A 
ATOM      4  C   LIG    1        1.214  -4.591  -2.058  0.00  0.00    +0.059 A 
ATOM      5  C   LIG    1        0.110  -3.907  -2.573  0.00  0.00    +0.015 A 
ATOM      6  C   LIG    1        0.006  -2.542  -2.399  0.00  0.00    +0.006 A 
ENDROOT
BRANCH   4   7
ATOM      7  C   LIG    1        1.329  -6.053  -2.235  0.00  0.00    +0.340 C 
ATOM      8  O   LIG    1        2.289  -6.645  -1.785  0.00  0.00    -0.245 OA
BRANCH   7   9
ATOM      9  O   LIG    1        0.368  -6.729  -2.894  0.00  0.00    -0.455 OA
BRANCH   9  10
ATOM     10  C   LIG    1        0.547  -8.164  -3.030  0.00  0.00    +0.291 C 
BRANCH  10  11
ATOM     11  C   LIG    1       -0.617  -8.746  -3.789  0.00  0.00    +0.128 A 
ATOM     12  C   LIG    1       -1.753  -9.192  -3.201  0.00  0.00    +0.124 A 
ATOM     13 CL   LIG    1       -2.143  -9.210  -1.509  0.00  0.00    -0.072 Cl
ATOM     14  S   LIG    1       -2.721  -9.737  -4.515  0.00  0.00    +0.049 S 
ATOM     15  N   LIG    1       -1.686  -9.383  -5.635  0.00  0.00    -0.109 NA
ATOM     16  N   LIG    1       -0.647  -8.872  -5.100  0.00  0.00    -0.141 NA
ENDBRANCH  10  11
ENDBRANCH   9  10
ENDBRANCH   7   9
ENDBRANCH   4   7
BRANCH   1  17
ATOM     17  C   LIG    1        0.880  -0.358  -1.545  0.00  0.00    +0.200 C 
BRANCH  17  18
ATOM     18  S   LIG    1        0.002  -0.004   0.002  0.00  0.00    -0.030 S 
ATOM     19  O   LIG    1        0.801  -0.452   1.088  0.00  0.00    -0.174 OA
ATOM     20  C   LIG    1       -0.022   1.810   0.012  0.00  0.00    +0.194 C 
ATOM     21  O   LIG    1       -1.334  -0.474  -0.117  0.00  0.00    -0.174 OA
ENDBRANCH  17  18
ENDBRANCH   1  17
TORSDOF 6
