REMARK  Name = ZINC000058192584
REMARK                            x       y       z     vdW  Elec       q    Type
REMARK                         _______ _______ _______ _____ _____    ______ ____
ROOT
ATOM      1  S   LIG    1       -1.516  -1.615   1.225  0.00  0.00    +0.075 S 
ATOM      2  O   LIG    1       -0.392  -1.405   2.068  0.00  0.00    -0.150 OA
ATOM      3  O   LIG    1       -1.803  -2.862   0.608  0.00  0.00    -0.150 OA
ENDROOT
BRANCH   1   4
ATOM      4  C   LIG    1       -2.937  -1.191   2.176  0.00  0.00    +0.111 A 
ATOM      5  C   LIG    1       -2.836  -0.258   3.190  0.00  0.00    +0.029 A 
ATOM      6  C   LIG    1       -3.950   0.077   3.940  0.00  0.00    +0.004 A 
ATOM      7  C   LIG    1       -5.166  -0.521   3.676  0.00  0.00    +0.028 A 
ATOM      8  C   LIG    1       -5.271  -1.459   2.658  0.00  0.00    +0.071 A 
ATOM      9  C   LIG    1       -4.153  -1.789   1.904  0.00  0.00    +0.056 A 
BRANCH   8  10
ATOM     10  N   LIG    1       -6.505  -2.068   2.387  0.00  0.00    -0.200 N 
ATOM     11  C   LIG    1       -7.700  -1.786   2.951  0.00  0.00    +0.250 A 
ATOM     12  N   LIG    1       -8.582  -2.586   2.412  0.00  0.00    -0.116 NA
ATOM     13  N   LIG    1       -8.027  -3.354   1.545  0.00  0.00    -0.023 NA
ATOM     14  N   LIG    1       -6.766  -3.098   1.466  0.00  0.00    -0.039 NA
ENDBRANCH   8  10
ENDBRANCH   1   4
BRANCH   1  15
ATOM     15  N   LIG    1       -1.397  -0.505   0.001  0.00  0.00    -0.203 N 
BRANCH  15  16
ATOM     16  C   LIG    1       -1.972  -0.773  -1.243  0.00  0.00    +0.054 A 
ATOM     17  C   LIG    1       -3.334  -1.023  -1.341  0.00  0.00    +0.025 A 
ATOM     18  C   LIG    1       -3.901  -1.288  -2.572  0.00  0.00    +0.005 A 
ATOM     19  C   LIG    1       -3.114  -1.304  -3.708  0.00  0.00    +0.038 A 
ATOM     20  C   LIG    1       -1.754  -1.056  -3.616  0.00  0.00    +0.125 A 
ATOM     21  F   LIG    1       -0.987  -1.074  -4.728  0.00  0.00    -0.205 F 
ATOM     22  C   LIG    1       -1.183  -0.784  -2.386  0.00  0.00    +0.063 A 
ENDBRANCH  15  16
BRANCH  15  23
ATOM     23  C   LIG    1       -0.688   0.757   0.224  0.00  0.00    +0.128 C 
ATOM     24  C   LIG    1       -1.692   1.843   0.618  0.00  0.00    +0.026 C 
ENDBRANCH  15  23
ENDBRANCH   1  15
TORSDOF 5
