REMARK  Name = ZINC000095991781
REMARK                            x       y       z     vdW  Elec       q    Type
REMARK                         _______ _______ _______ _____ _____    ______ ____
ROOT
ATOM      1  C   LIG    1       -0.018   1.503   0.010  0.00  0.00    +0.066 C 
ATOM      2  C   LIG    1        0.002  -0.004   0.002  0.00  0.00    +0.043 A 
ATOM      3  N   LIG    1        0.024  -0.817   1.091  0.00  0.00    -0.236 N 
ATOM      4  N   LIG    1        0.034  -2.047   0.722  0.00  0.00    -0.161 NA
ATOM      5  C   LIG    1        0.029  -2.127  -0.594  0.00  0.00    +0.148 A 
ATOM      6  C   LIG    1        0.009  -0.802  -1.091  0.00  0.00    +0.057 A 
ENDROOT
BRANCH   3   7
ATOM      7  C   LIG    1        0.025  -0.377   2.421  0.00  0.00    +0.066 A 
ATOM      8  C   LIG    1       -0.653  -1.100   3.393  0.00  0.00    +0.031 A 
ATOM      9  C   LIG    1       -0.644  -0.667   4.705  0.00  0.00    -0.048 A 
ATOM     10  C   LIG    1       -1.375  -1.454   5.762  0.00  0.00    +0.044 C 
ATOM     11  C   LIG    1        0.029   0.491   5.048  0.00  0.00    +0.006 A 
ATOM     12  C   LIG    1        0.701   1.216   4.081  0.00  0.00    -0.048 A 
ATOM     13  C   LIG    1        1.433   2.478   4.459  0.00  0.00    +0.044 C 
ATOM     14  C   LIG    1        0.701   0.785   2.768  0.00  0.00    +0.031 A 
ENDBRANCH   3   7
BRANCH   5  15
ATOM     15  C   LIG    1        0.044  -3.365  -1.398  0.00  0.00    +0.264 C 
ATOM     16  N   LIG    1        0.063  -4.566  -0.786  0.00  0.00    -0.306 N 
ATOM     17  H   LIG    1        0.067  -4.617   0.182  0.00  0.00    +0.149 HD
ATOM     18  O   LIG    1        0.038  -3.302  -2.612  0.00  0.00    -0.268 OA
BRANCH  16  19
ATOM     19  C   LIG    1        0.077  -5.795  -1.584  0.00  0.00    +0.092 C 
ATOM     20  C   LIG    1       -1.356  -6.174  -1.962  0.00  0.00    +0.030 C 
BRANCH  19  21
ATOM     21  C   LIG    1        0.706  -6.926  -0.767  0.00  0.00    +0.167 C 
BRANCH  21  22
ATOM     22  N   LIG    1        2.114  -6.616  -0.507  0.00  0.00    -0.250 N 
ATOM     23  C   LIG    1        2.720  -6.569   0.691  0.00  0.00    +0.219 A 
ATOM     24  N   LIG    1        3.977  -6.260   0.499  0.00  0.00    -0.223 NA
ATOM     25  C   LIG    1        4.209  -6.101  -0.804  0.00  0.00    +0.244 A 
ATOM     26  N   LIG    1        3.099  -6.314  -1.461  0.00  0.00    -0.158 NA
ENDBRANCH  21  22
ENDBRANCH  19  21
ENDBRANCH  16  19
ENDBRANCH   5  15
TORSDOF 5
