REMARK  Name = ZINC000000223187
REMARK                            x       y       z     vdW  Elec       q    Type
REMARK                         _______ _______ _______ _____ _____    ______ ____
ROOT
ATOM      1  C   LIG    1        1.109  -6.040  -1.847  0.00  0.00    +0.095 C 
ATOM      2  C   LIG    1        2.562  -6.418  -1.907  0.00  0.00    +0.062 C 
ATOM      3  C   LIG    1        3.157  -6.732  -3.071  0.00  0.00    +0.086 C 
ATOM      4  N   LIG    1        2.451  -6.726  -4.243  0.00  0.00    -0.315 N 
ATOM      5  C   LIG    1        1.083  -6.756  -4.225  0.00  0.00    +0.086 C 
ATOM      6  C   LIG    1        3.163  -6.685  -5.522  0.00  0.00    +0.134 C 
ATOM      7  C   LIG    1        0.402  -6.443  -3.110  0.00  0.00    +0.062 C 
ENDROOT
BRANCH   1   8
ATOM      8  C   LIG    1        0.992  -4.548  -1.667  0.00  0.00    -0.035 A 
ATOM      9  C   LIG    1        0.351  -4.036  -0.554  0.00  0.00    +0.008 A 
ATOM     10  C   LIG    1        0.243  -2.669  -0.386  0.00  0.00    +0.046 A 
ATOM     11  C   LIG    1        0.777  -1.810  -1.336  0.00  0.00    +0.121 A 
ATOM     12  C   LIG    1        1.414  -2.327  -2.455  0.00  0.00    +0.046 A 
ATOM     13  C   LIG    1        1.524  -3.694  -2.615  0.00  0.00    +0.008 A 
BRANCH  11  14
ATOM     14  O   LIG    1        0.671  -0.465  -1.174  0.00  0.00    -0.492 OA
BRANCH  14  15
ATOM     15  C   LIG    1        0.002  -0.004   0.002  0.00  0.00    +0.225 C 
ATOM     16  C   LIG    1       -0.019   1.526   0.010  0.00  0.00    +0.048 C 
ENDBRANCH  14  15
ENDBRANCH  11  14
ENDBRANCH   1   8
BRANCH   2  17
ATOM     17  C   LIG    1        3.320  -6.443  -0.714  0.00  0.00    +0.337 C 
ATOM     18  O   LIG    1        4.498  -6.746  -0.748  0.00  0.00    -0.245 OA
BRANCH  17  19
ATOM     19  O   LIG    1        2.737  -6.130   0.463  0.00  0.00    -0.465 OA
ATOM     20  C   LIG    1        3.563  -6.176   1.628  0.00  0.00    +0.280 C 
ENDBRANCH  17  19
ENDBRANCH   2  17
BRANCH   7  21
ATOM     21  C   LIG    1       -1.011  -6.493  -3.126  0.00  0.00    +0.337 C 
ATOM     22  O   LIG    1       -1.597  -6.818  -4.141  0.00  0.00    -0.245 OA
BRANCH  21  23
ATOM     23  O   LIG    1       -1.710  -6.182  -2.014  0.00  0.00    -0.465 OA
ATOM     24  C   LIG    1       -3.134  -6.254  -2.101  0.00  0.00    +0.280 C 
ENDBRANCH  21  23
ENDBRANCH   7  21
TORSDOF 7
