REMARK  Name = ZINC000164596931
REMARK                            x       y       z     vdW  Elec       q    Type
REMARK                         _______ _______ _______ _____ _____    ______ ____
ROOT
ATOM      1  N   LIG    1        1.458   1.042   4.212  0.00  0.00    -0.299 N 
ATOM      2  C   LIG    1        2.624   1.384   4.796  0.00  0.00    +0.302 C 
ATOM      3  N   LIG    1        2.623   2.138   5.913  0.00  0.00    -0.283 N 
ATOM      4  C   LIG    1        1.359   2.493   6.574  0.00  0.00    +0.128 C 
ATOM      5  C   LIG    1        1.428   2.044   8.039  0.00  0.00    +0.124 C 
ATOM      6  N   LIG    1        2.690   2.525   8.618  0.00  0.00    -0.325 N 
ATOM      7  C   LIG    1        3.954   2.169   7.957  0.00  0.00    +0.124 C 
ATOM      8  C   LIG    1        3.885   2.614   6.496  0.00  0.00    +0.128 C 
ATOM      9  O   LIG    1        3.677   1.012   4.315  0.00  0.00    -0.253 OA
ATOM     10  H   LIG    1        0.617   1.276   4.635  0.00  0.00    +0.150 HD
ENDROOT
BRANCH   6  11
ATOM     11  C   LIG    1        2.689   3.312   9.786  0.00  0.00    +0.068 A 
ATOM     12  C   LIG    1        1.556   3.717  10.507  0.00  0.00    +0.157 A 
ATOM     13  N   LIG    1        1.952   4.431  11.529  0.00  0.00    -0.178 NA
ATOM     14  N   LIG    1        3.350   4.515  11.494  0.00  0.00    -0.273 N 
ATOM     15  C   LIG    1        4.196   5.229  12.454  0.00  0.00    +0.172 C 
ATOM     16  C   LIG    1        3.783   3.817  10.410  0.00  0.00    +0.131 A 
ENDBRANCH   6  11
BRANCH   1  17
ATOM     17  C   LIG    1        1.462   0.316   2.940  0.00  0.00    +0.110 C 
BRANCH  17  18
ATOM     18  C   LIG    1        0.021   0.053   2.499  0.00  0.00    +0.054 C 
BRANCH  18  19
ATOM     19  C   LIG    1        0.024  -0.694   1.190  0.00  0.00    -0.040 A 
ATOM     20  C   LIG    1        0.034  -2.076   1.183  0.00  0.00    -0.047 A 
ATOM     21  C   LIG    1        0.045  -2.836   2.484  0.00  0.00    +0.044 C 
ATOM     22  C   LIG    1        0.037  -2.761  -0.018  0.00  0.00    +0.003 A 
ATOM     23  C   LIG    1        0.026  -2.063  -1.212  0.00  0.00    +0.001 A 
ATOM     24  C   LIG    1        0.012  -0.681  -1.204  0.00  0.00    +0.003 A 
ATOM     25  C   LIG    1        0.008   0.004  -0.004  0.00  0.00    -0.047 A 
ATOM     26  C   LIG    1       -0.007   1.511   0.004  0.00  0.00    +0.044 C 
ENDBRANCH  18  19
ENDBRANCH  17  18
ENDBRANCH   1  17
TORSDOF 4
