REMARK  Name = ZINC000069617269
REMARK                            x       y       z     vdW  Elec       q    Type
REMARK                         _______ _______ _______ _____ _____    ______ ____
ROOT
ATOM      1  C   LIG    1        0.073  -5.726  -1.527  0.00  0.00    +0.245 C 
ATOM      2  N   LIG    1        0.092  -6.905  -0.874  0.00  0.00    -0.302 N 
ATOM      3  H   LIG    1        0.096  -6.922   0.096  0.00  0.00    +0.150 HD
ATOM      4  O   LIG    1        0.068  -5.704  -2.743  0.00  0.00    -0.270 OA
ENDROOT
BRANCH   1   5
ATOM      5  C   LIG    1        0.059  -4.460  -0.766  0.00  0.00    +0.039 A 
ATOM      6  C   LIG    1        0.066  -4.488   0.635  0.00  0.00    +0.015 A 
ATOM      7  C   LIG    1        0.053  -3.325   1.349  0.00  0.00    +0.029 A 
ATOM      8  C   LIG    1        0.034  -2.101   0.691  0.00  0.00    +0.069 A 
ATOM      9  N   LIG    1        0.023  -0.789   1.113  0.00  0.00    -0.331 N 
ATOM     10  C   LIG    1        0.030  -0.326   2.503  0.00  0.00    +0.150 C 
ATOM     11  C   LIG    1        0.002  -0.004   0.002  0.00  0.00    +0.107 A 
ATOM     12  C   LIG    1       -0.018   1.503   0.010  0.00  0.00    +0.086 C 
ATOM     13  N   LIG    1        0.008  -0.743  -1.068  0.00  0.00    -0.233 NA
ATOM     14  C   LIG    1        0.027  -2.055  -0.716  0.00  0.00    +0.090 A 
ATOM     15  C   LIG    1        0.040  -3.244  -1.442  0.00  0.00    +0.043 A 
ENDBRANCH   1   5
BRANCH   2  16
ATOM     16  C   LIG    1        0.106  -8.160  -1.629  0.00  0.00    +0.139 C 
ATOM     17  C   LIG    1       -1.327  -8.552  -1.994  0.00  0.00    +0.036 C 
BRANCH  16  18
ATOM     18  C   LIG    1        0.724  -9.246  -0.787  0.00  0.00    +0.158 A 
ATOM     19  N   LIG    1        0.466  -9.490   0.471  0.00  0.00    -0.132 NA
ATOM     20  N   LIG    1        1.167 -10.487   0.885  0.00  0.00    -0.129 NA
ATOM     21  C   LIG    1        1.921 -10.937  -0.104  0.00  0.00    +0.161 A 
ATOM     22  C   LIG    1        2.858 -11.983  -0.209  0.00  0.00    +0.048 A 
ATOM     23  C   LIG    1        3.484 -12.197  -1.397  0.00  0.00    +0.005 A 
ATOM     24  C   LIG    1        3.189 -11.376  -2.499  0.00  0.00    +0.018 A 
ATOM     25  C   LIG    1        2.289 -10.377  -2.383  0.00  0.00    +0.094 A 
ATOM     26  N   LIG    1        1.650 -10.155  -1.199  0.00  0.00    -0.285 N 
ENDBRANCH  16  18
ENDBRANCH   2  16
TORSDOF 3
