REMARK  Name = ZINC000058177714
REMARK                            x       y       z     vdW  Elec       q    Type
REMARK                         _______ _______ _______ _____ _____    ______ ____
ROOT
ATOM      1  C   LIG    1       -4.652  -4.544  -0.009  0.00  0.00    +0.165 C 
ENDROOT
BRANCH   1   2
ATOM      2  C   LIG    1       -5.285  -4.336  -1.361  0.00  0.00    +0.236 C 
ATOM      3  N   LIG    1       -6.528  -3.822  -1.451  0.00  0.00    -0.300 N 
ATOM      4  C   LIG    1       -7.332  -3.322  -0.326  0.00  0.00    +0.108 C 
ATOM      5  C   LIG    1       -8.687  -2.859  -0.902  0.00  0.00    +0.020 C 
ATOM      6  C   LIG    1       -8.786  -3.647  -2.235  0.00  0.00    +0.020 C 
ATOM      7  C   LIG    1       -7.304  -3.664  -2.694  0.00  0.00    +0.108 C 
ATOM      8  O   LIG    1       -4.676  -4.630  -2.368  0.00  0.00    -0.274 OA
ENDBRANCH   1   2
BRANCH   1   9
ATOM      9  N   LIG    1       -3.194  -4.511  -0.143  0.00  0.00    -0.287 N 
ATOM     10  C   LIG    1       -2.542  -3.331  -0.123  0.00  0.00    +0.306 C 
ATOM     11  O   LIG    1       -3.165  -2.295   0.006  0.00  0.00    -0.252 OA
ATOM     12  N   LIG    1       -1.200  -3.300  -0.246  0.00  0.00    -0.251 N 
ATOM     13  H   LIG    1       -0.704  -4.127  -0.349  0.00  0.00    +0.158 HD
ATOM     14  H   LIG    1       -2.697  -5.337  -0.246  0.00  0.00    +0.151 HD
BRANCH  12  15
ATOM     15  C   LIG    1       -0.526  -2.079  -0.225  0.00  0.00    +0.169 A 
ATOM     16  C   LIG    1       -1.103  -0.789  -0.082  0.00  0.00    +0.091 A 
ATOM     17  C   LIG    1       -0.042   0.049  -0.124  0.00  0.00    +0.136 A 
ATOM     18  C   LIG    1       -0.076   1.552  -0.019  0.00  0.00    +0.089 C 
ATOM     19  O   LIG    1        1.046  -0.718  -0.284  0.00  0.00    -0.358 OA
ATOM     20  N   LIG    1        0.763  -1.893  -0.333  0.00  0.00    -0.063 NA
ENDBRANCH  12  15
ENDBRANCH   1   9
BRANCH   1  21
ATOM     21  C   LIG    1       -5.082  -5.901   0.551  0.00  0.00    +0.067 C 
BRANCH  21  22
ATOM     22  C   LIG    1       -4.561  -6.052   1.957  0.00  0.00    -0.045 A 
ATOM     23  C   LIG    1       -5.326  -5.627   3.027  0.00  0.00    +0.004 A 
ATOM     24  C   LIG    1       -4.850  -5.769   4.317  0.00  0.00    +0.000 A 
ATOM     25  C   LIG    1       -3.605  -6.328   4.537  0.00  0.00    +0.000 A 
ATOM     26  C   LIG    1       -2.837  -6.747   3.466  0.00  0.00    +0.000 A 
ATOM     27  C   LIG    1       -3.315  -6.609   2.177  0.00  0.00    +0.004 A 
ENDBRANCH  21  22
ENDBRANCH   1  21
TORSDOF 5
