REMARK  Name = ZINC000082135047
REMARK                            x       y       z     vdW  Elec       q    Type
REMARK                         _______ _______ _______ _____ _____    ______ ____
ROOT
ATOM      1  C   LIG    1       -4.455  -1.653   1.567  0.00  0.00    +0.284 C 
ATOM      2  N   LIG    1       -4.288  -1.705   2.904  0.00  0.00    -0.293 N 
ATOM      3  C   LIG    1       -5.353  -2.219   3.778  0.00  0.00    +0.123 C 
ATOM      4  C   LIG    1       -5.610  -1.203   4.889  0.00  0.00    +0.103 C 
ATOM      5  N   LIG    1       -4.346  -0.890   5.568  0.00  0.00    -0.296 NA
ATOM      6  C   LIG    1       -3.390  -0.258   4.648  0.00  0.00    +0.103 C 
ATOM      7  C   LIG    1       -3.039  -1.242   3.527  0.00  0.00    +0.123 C 
ATOM      8  O   LIG    1       -5.538  -1.919   1.079  0.00  0.00    -0.267 OA
ENDROOT
BRANCH   1   9
ATOM      9  C   LIG    1       -3.332  -1.278   0.701  0.00  0.00    +0.212 A 
ATOM     10  O   LIG    1       -2.043  -1.105   1.079  0.00  0.00    -0.435 OA
ATOM     11  C   LIG    1       -1.344  -0.765  -0.008  0.00  0.00    +0.196 A 
ATOM     12  N   LIG    1       -2.144  -0.730  -1.039  0.00  0.00    -0.218 NA
ATOM     13  C   LIG    1       -3.382  -1.042  -0.640  0.00  0.00    +0.089 A 
ATOM     14  C   LIG    1       -4.608  -1.117  -1.514  0.00  0.00    +0.070 C 
BRANCH  11  15
ATOM     15  C   LIG    1        0.135  -0.475  -0.040  0.00  0.00    +0.093 C 
ATOM     16  C   LIG    1        0.367   1.016   0.213  0.00  0.00    +0.013 C 
ENDBRANCH  11  15
ENDBRANCH   1   9
BRANCH   5  17
ATOM     17  C   LIG    1       -4.576  -0.047   6.749  0.00  0.00    +0.125 C 
BRANCH  17  18
ATOM     18  C   LIG    1       -5.371  -0.836   7.791  0.00  0.00    +0.244 C 
BRANCH  18  19
ATOM     19  O   LIG    1       -4.586  -1.934   8.258  0.00  0.00    -0.491 OA
BRANCH  19  20
ATOM     20  C   LIG    1       -5.150  -2.741   9.195  0.00  0.00    +0.121 A 
ATOM     21  C   LIG    1       -4.443  -3.827   9.693  0.00  0.00    +0.045 A 
ATOM     22  C   LIG    1       -5.017  -4.643  10.649  0.00  0.00    +0.004 A 
ATOM     23  C   LIG    1       -6.298  -4.385  11.101  0.00  0.00    +0.000 A 
ATOM     24  C   LIG    1       -7.006  -3.307  10.602  0.00  0.00    +0.004 A 
ATOM     25  C   LIG    1       -6.435  -2.485   9.651  0.00  0.00    +0.045 A 
ENDBRANCH  19  20
ENDBRANCH  18  19
ENDBRANCH  17  18
ENDBRANCH   5  17
TORSDOF 6
