REMARK  Name = ZINC000222221070
REMARK                            x       y       z     vdW  Elec       q    Type
REMARK                         _______ _______ _______ _____ _____    ______ ____
ROOT
ATOM      1  C   LIG    1        0.558   0.068   4.902  0.00  0.00    +0.128 C 
ATOM      2  C   LIG    1        0.179  -0.867   6.055  0.00  0.00    +0.143 C 
ATOM      3  C   LIG    1        1.180  -2.027   6.104  0.00  0.00    +0.061 C 
ATOM      4  C   LIG    1        2.596  -1.465   6.253  0.00  0.00    +0.162 C 
ATOM      5  O   LIG    1        2.871  -0.580   5.165  0.00  0.00    -0.378 OA
ATOM      6  C   LIG    1        1.998   0.550   5.096  0.00  0.00    +0.184 C 
ENDROOT
BRANCH   1   7
ATOM      7  N   LIG    1        0.450  -0.653   3.631  0.00  0.00    -0.304 N 
ATOM      8  H   LIG    1        0.532  -1.619   3.614  0.00  0.00    +0.149 HD
ATOM      9  C   LIG    1        0.237   0.027   2.487  0.00  0.00    +0.246 C 
ATOM     10  O   LIG    1        0.135   1.238   2.509  0.00  0.00    -0.270 OA
BRANCH   9  11
ATOM     11  C   LIG    1        0.129  -0.701   1.205  0.00  0.00    +0.058 A 
ATOM     12  C   LIG    1        0.372  -2.078   1.145  0.00  0.00    +0.016 A 
ATOM     13  C   LIG    1        0.257  -2.712  -0.080  0.00  0.00    +0.020 A 
ATOM     14  C   LIG    1       -0.096  -1.972  -1.194  0.00  0.00    +0.111 A 
ATOM     15  N   LIG    1       -0.324  -0.676  -1.107  0.00  0.00    -0.259 NA
ATOM     16  C   LIG    1       -0.228  -0.028   0.035  0.00  0.00    +0.050 A 
ATOM     17  C   LIG    1       -0.499   1.454   0.079  0.00  0.00    +0.066 C 
ENDBRANCH   9  11
ENDBRANCH   1   7
BRANCH   2  18
ATOM     18  O   LIG    1       -1.138  -1.380   5.845  0.00  0.00    -0.370 OA
BRANCH  18  19
ATOM     19  C   LIG    1       -1.844  -1.680   7.051  0.00  0.00    +0.195 C 
BRANCH  19  20
ATOM     20  C   LIG    1       -3.213  -2.211   6.713  0.00  0.00    -0.022 A 
ATOM     21  C   LIG    1       -4.277  -1.340   6.574  0.00  0.00    +0.006 A 
ATOM     22  C   LIG    1       -5.533  -1.828   6.263  0.00  0.00    +0.000 A 
ATOM     23  C   LIG    1       -5.724  -3.186   6.093  0.00  0.00    +0.000 A 
ATOM     24  C   LIG    1       -4.660  -4.057   6.231  0.00  0.00    +0.000 A 
ATOM     25  C   LIG    1       -3.403  -3.569   6.537  0.00  0.00    +0.006 A 
ENDBRANCH  19  20
ENDBRANCH  18  19
ENDBRANCH   2  18
TORSDOF 5
