REMARK  Name = ZINC000082092484
REMARK                            x       y       z     vdW  Elec       q    Type
REMARK                         _______ _______ _______ _____ _____    ______ ____
ROOT
ATOM      1  C   LIG    1        0.025  -0.354   2.521  0.00  0.00    +0.069 C 
ATOM      2  C   LIG    1       -1.215  -0.900   3.232  0.00  0.00    +0.095 C 
ATOM      3  N   LIG    1       -1.203  -0.474   4.637  0.00  0.00    -0.300 NA
ATOM      4  C   LIG    1       -0.029  -1.003   5.343  0.00  0.00    +0.084 C 
ATOM      5  C   LIG    1        1.246  -0.460   4.695  0.00  0.00    +0.016 C 
ATOM      6  C   LIG    1        1.282  -0.877   3.222  0.00  0.00    +0.014 C 
ENDROOT
BRANCH   1   7
ATOM      7  C   LIG    1        0.023  -0.811   1.085  0.00  0.00    +0.114 A 
ATOM      8  N   LIG    1        0.034  -2.052   0.681  0.00  0.00    -0.240 NA
ATOM      9  C   LIG    1        0.029  -2.081  -0.660  0.00  0.00    +0.130 A 
ATOM     10  C   LIG    1        0.009  -0.810  -1.104  0.00  0.00    +0.106 A 
ATOM     11  N   LIG    1        0.002  -0.004   0.002  0.00  0.00    -0.337 N 
ATOM     12  C   LIG    1       -0.018   1.461   0.010  0.00  0.00    +0.150 C 
ENDBRANCH   1   7
BRANCH   3  13
ATOM     13  C   LIG    1       -2.446  -0.864   5.316  0.00  0.00    +0.107 C 
BRANCH  13  14
ATOM     14  C   LIG    1       -2.621  -2.381   5.228  0.00  0.00    +0.187 C 
BRANCH  14  15
ATOM     15  S   LIG    1       -4.156  -2.862   6.067  0.00  0.00    -0.002 S 
ATOM     16  O   LIG    1       -4.043  -2.658   7.468  0.00  0.00    -0.169 OA
ATOM     17  O   LIG    1       -5.287  -2.390   5.347  0.00  0.00    -0.169 OA
BRANCH  15  18
ATOM     18  C   LIG    1       -4.225  -4.613   5.886  0.00  0.00    +0.088 A 
ATOM     19  C   LIG    1       -3.651  -5.430   6.842  0.00  0.00    +0.027 A 
ATOM     20  C   LIG    1       -3.709  -6.804   6.703  0.00  0.00    +0.002 A 
ATOM     21  C   LIG    1       -4.334  -7.361   5.603  0.00  0.00    +0.000 A 
ATOM     22  C   LIG    1       -4.904  -6.545   4.644  0.00  0.00    +0.002 A 
ATOM     23  C   LIG    1       -4.849  -5.171   4.786  0.00  0.00    +0.027 A 
ENDBRANCH  15  18
ENDBRANCH  14  15
ENDBRANCH  13  14
ENDBRANCH   3  13
TORSDOF 5
