REMARK  Name = ZINC000009660890
REMARK                            x       y       z     vdW  Elec       q    Type
REMARK                         _______ _______ _______ _____ _____    ______ ____
ROOT
ATOM      1  N   LIG    1        4.850   1.478  -0.036  0.00  0.00    -0.227 N 
ATOM      2  N   LIG    1        5.403   1.163   1.079  0.00  0.00    -0.168 NA
ATOM      3  C   LIG    1        6.547   0.522   1.137  0.00  0.00    +0.092 A 
ATOM      4  C   LIG    1        7.218   0.152  -0.052  0.00  0.00    +0.035 A 
ATOM      5  C   LIG    1        6.645   0.480  -1.245  0.00  0.00    +0.074 A 
ATOM      6  C   LIG    1        5.410   1.165  -1.220  0.00  0.00    +0.267 A 
ATOM      7  O   LIG    1        4.859   1.478  -2.263  0.00  0.00    -0.266 OA
ENDROOT
BRANCH   3   8
ATOM      8  C   LIG    1        7.138   0.184   2.455  0.00  0.00    +0.002 A 
ATOM      9  C   LIG    1        6.480   0.546   3.629  0.00  0.00    +0.013 A 
ATOM     10  C   LIG    1        7.030   0.225   4.853  0.00  0.00    +0.039 A 
ATOM     11  C   LIG    1        8.241  -0.447   4.916  0.00  0.00    +0.123 A 
ATOM     12  F   LIG    1        8.779  -0.755   6.116  0.00  0.00    -0.205 F 
ATOM     13  C   LIG    1        8.901  -0.803   3.751  0.00  0.00    +0.039 A 
ATOM     14  C   LIG    1        8.355  -0.490   2.523  0.00  0.00    +0.013 A 
ENDBRANCH   3   8
BRANCH   1  15
ATOM     15  C   LIG    1        3.571   2.193  -0.020  0.00  0.00    +0.166 C 
BRANCH  15  16
ATOM     16  C   LIG    1        2.422   1.183  -0.015  0.00  0.00    +0.127 C 
BRANCH  16  17
ATOM     17  N   LIG    1        1.143   1.898   0.001  0.00  0.00    -0.313 N 
ATOM     18  C   LIG    1       -0.014   1.209   0.009  0.00  0.00    +0.216 C 
ATOM     19  O   LIG    1        0.002  -0.004   0.002  0.00  0.00    -0.276 OA
ATOM     20  H   LIG    1        1.130   2.868   0.007  0.00  0.00    +0.149 HD
BRANCH  18  21
ATOM     21  C   LIG    1       -1.330   1.944   0.019  0.00  0.00    +0.075 C 
ATOM     22  C   LIG    1       -2.506   0.947   0.019  0.00  0.00    +0.013 C 
ATOM     23  C   LIG    1       -3.600   1.557  -0.874  0.00  0.00    +0.001 C 
ATOM     24  C   LIG    1       -3.050   2.904  -1.386  0.00  0.00    +0.001 C 
ATOM     25  C   LIG    1       -1.512   2.747  -1.293  0.00  0.00    +0.013 C 
ENDBRANCH  18  21
ENDBRANCH  16  17
ENDBRANCH  15  16
ENDBRANCH   1  15
TORSDOF 5
