REMARK  Name = ZINC000058192772
REMARK                            x       y       z     vdW  Elec       q    Type
REMARK                         _______ _______ _______ _____ _____    ______ ____
ROOT
ATOM      1  C   LIG    1        0.587  -1.981  -1.360  0.00  0.00    +0.218 C 
ATOM      2  O   LIG    1       -0.133  -2.603  -0.607  0.00  0.00    -0.275 OA
ATOM      3  N   LIG    1        1.288  -2.629  -2.311  0.00  0.00    -0.299 N 
ATOM      4  C   LIG    1        1.105  -4.072  -2.523  0.00  0.00    +0.125 C 
ATOM      5  C   LIG    1        2.464  -4.763  -2.413  0.00  0.00    +0.128 C 
ATOM      6  N   LIG    1        3.430  -4.041  -3.254  0.00  0.00    -0.174 NA
ATOM      7  C   LIG    1        3.616  -2.599  -3.038  0.00  0.00    +0.128 C 
ATOM      8  C   LIG    1        2.253  -1.906  -3.151  0.00  0.00    +0.125 C 
ENDROOT
BRANCH   6   9
ATOM      9  S   LIG    1        4.292  -4.837  -4.422  0.00  0.00    +0.062 S 
ATOM     10  O   LIG    1        3.539  -5.994  -4.758  0.00  0.00    -0.153 OA
ATOM     11  O   LIG    1        4.677  -3.856  -5.375  0.00  0.00    -0.153 OA
BRANCH   9  12
ATOM     12  C   LIG    1        5.779  -5.413  -3.671  0.00  0.00    +0.116 A 
ATOM     13  C   LIG    1        6.711  -4.584  -3.199  0.00  0.00    +0.013 A 
ATOM     14  S   LIG    1        8.043  -5.516  -2.527  0.00  0.00    -0.097 S 
ATOM     15  C   LIG    1        7.235  -7.023  -2.938  0.00  0.00    -0.011 A 
ATOM     16  C   LIG    1        7.777  -8.403  -2.666  0.00  0.00    +0.051 C 
ATOM     17  C   LIG    1        6.635  -3.079  -3.235  0.00  0.00    +0.053 C 
ATOM     18  C   LIG    1        6.065  -6.759  -3.522  0.00  0.00    +0.039 A 
ENDBRANCH   9  12
ENDBRANCH   6   9
BRANCH   1  19
ATOM     19  C   LIG    1        0.696  -0.483  -1.232  0.00  0.00    +0.072 C 
ATOM     20  C   LIG    1        1.907  -0.133  -0.364  0.00  0.00    +0.017 C 
BRANCH  19  21
ATOM     21  C   LIG    1       -0.574   0.067  -0.580  0.00  0.00    +0.009 C 
ATOM     22  C   LIG    1       -0.518   1.596  -0.563  0.00  0.00    +0.004 C 
ENDBRANCH  19  21
ENDBRANCH   1  19
TORSDOF 4
