REMARK  Name = ZINC000095993312
REMARK                            x       y       z     vdW  Elec       q    Type
REMARK                         _______ _______ _______ _____ _____    ______ ____
ROOT
ATOM      1  C   LIG    1        0.485  -0.747  -1.245  0.00  0.00    +0.026 C 
ATOM      2  C   LIG    1        0.106  -2.226  -1.136  0.00  0.00    +0.023 C 
ATOM      3  C   LIG    1        0.560  -2.960  -2.402  0.00  0.00    +0.110 C 
ATOM      4  N   LIG    1        1.996  -2.718  -2.599  0.00  0.00    -0.174 NA
ATOM      5  C   LIG    1        2.481  -1.332  -2.628  0.00  0.00    +0.141 C 
ATOM      6  C   LIG    1        2.006  -0.616  -1.360  0.00  0.00    +0.134 C 
ENDROOT
BRANCH   1   7
ATOM      7  C   LIG    1        0.002  -0.004   0.002  0.00  0.00    -0.032 C 
ATOM      8  C   LIG    1        0.534  -0.707   1.253  0.00  0.00    +0.011 C 
ATOM      9  C   LIG    1       -1.528   0.001   0.032  0.00  0.00    +0.011 C 
ATOM     10  C   LIG    1        0.517   1.436  -0.032  0.00  0.00    +0.011 C 
ENDBRANCH   1   7
BRANCH   4  11
ATOM     11  S   LIG    1        3.047  -3.985  -2.785  0.00  0.00    +0.061 S 
ATOM     12  O   LIG    1        2.428  -5.112  -2.180  0.00  0.00    -0.153 OA
ATOM     13  O   LIG    1        4.328  -3.502  -2.403  0.00  0.00    -0.153 OA
BRANCH  11  14
ATOM     14  C   LIG    1        3.141  -4.335  -4.510  0.00  0.00    +0.107 A 
ATOM     15  C   LIG    1        2.262  -5.240  -5.079  0.00  0.00    +0.031 A 
ATOM     16  C   LIG    1        2.328  -5.522  -6.431  0.00  0.00    +0.041 A 
ATOM     17  C   LIG    1        3.273  -4.900  -7.224  0.00  0.00    +0.141 A 
ATOM     18  C   LIG    1        4.164  -3.983  -6.654  0.00  0.00    +0.089 A 
ATOM     19  F   LIG    1        3.337  -5.175  -8.545  0.00  0.00    -0.204 F 
ATOM     20  C   LIG    1        4.086  -3.701  -5.289  0.00  0.00    +0.050 A 
BRANCH  18  21
ATOM     21  C   LIG    1        5.147  -3.334  -7.469  0.00  0.00    +0.102 C 
ATOM     22  N   LIG    1        5.927  -2.819  -8.114  0.00  0.00    -0.191 NA
ENDBRANCH  18  21
ENDBRANCH  11  14
ENDBRANCH   4  11
BRANCH   6  23
ATOM     23  O   LIG    1        2.624  -1.210  -0.217  0.00  0.00    -0.390 OA
ATOM     24  H   LIG    1        3.590  -1.165  -0.224  0.00  0.00    +0.210 HD
ENDBRANCH   6  23
TORSDOF 5
