REMARK  Name = ZINC000095987065
REMARK                            x       y       z     vdW  Elec       q    Type
REMARK                         _______ _______ _______ _____ _____    ______ ____
ROOT
ATOM      1  C   LIG    1        1.843  -2.820   4.634  0.00  0.00    +0.034 A 
ATOM      2  C   LIG    1        1.461  -2.611   5.953  0.00  0.00    +0.025 A 
ATOM      3  C   LIG    1        2.262  -3.062   6.983  0.00  0.00    +0.029 A 
ATOM      4  C   LIG    1        3.454  -3.716   6.700  0.00  0.00    +0.066 A 
ATOM      5  C   LIG    1        3.839  -3.920   5.382  0.00  0.00    +0.029 A 
ATOM      6  C   LIG    1        3.036  -3.473   4.352  0.00  0.00    +0.025 A 
ENDROOT
BRANCH   4   7
ATOM      7  N   LIG    1        4.269  -4.169   7.746  0.00  0.00    -0.232 N 
ATOM      8  C   LIG    1        4.441  -3.538   8.953  0.00  0.00    +0.075 A 
ATOM      9  C   LIG    1        5.333  -4.331   9.702  0.00  0.00    +0.020 A 
ATOM     10  C   LIG    1        5.696  -3.936  10.994  0.00  0.00    +0.011 A 
ATOM     11  C   LIG    1        5.180  -2.788  11.521  0.00  0.00    +0.001 A 
ATOM     12  C   LIG    1        4.296  -2.006  10.788  0.00  0.00    +0.002 A 
ATOM     13  C   LIG    1        5.683  -5.466   8.853  0.00  0.00    +0.143 A 
ATOM     14  C   LIG    1        3.923  -2.374   9.515  0.00  0.00    +0.028 A 
ATOM     15  N   LIG    1        5.044  -5.333   7.726  0.00  0.00    -0.174 NA
ENDBRANCH   4   7
BRANCH   1  16
ATOM     16  N   LIG    1        1.029  -2.367   3.589  0.00  0.00    -0.283 N 
ATOM     17  C   LIG    1        0.337  -1.218   3.723  0.00  0.00    +0.247 C 
ATOM     18  O   LIG    1        0.354  -0.619   4.777  0.00  0.00    -0.273 OA
ATOM     19  H   LIG    1        0.962  -2.881   2.769  0.00  0.00    +0.155 HD
BRANCH  17  20
ATOM     20  C   LIG    1       -0.457  -0.677   2.562  0.00  0.00    +0.218 C 
ATOM     21  O   LIG    1       -1.001   0.599   2.909  0.00  0.00    -0.365 OA
ATOM     22  C   LIG    1       -1.801   1.184   1.878  0.00  0.00    +0.176 C 
ATOM     23  C   LIG    1       -2.957   0.240   1.539  0.00  0.00    +0.112 C 
ATOM     24  N   LIG    1       -2.415  -1.070   1.148  0.00  0.00    -0.300 NA
ATOM     25  C   LIG    1       -3.492  -1.990   0.759  0.00  0.00    +0.105 C 
ATOM     26  C   LIG    1       -1.599  -1.640   2.230  0.00  0.00    +0.125 C 
ENDBRANCH  17  20
ENDBRANCH   1  16
TORSDOF 3
