REMARK  Name = ZINC000095991760
REMARK                            x       y       z     vdW  Elec       q    Type
REMARK                         _______ _______ _______ _____ _____    ______ ____
ROOT
ATOM      1  N   LIG    1        3.115  -7.925   5.051  0.00  0.00    -0.311 N 
ATOM      2  C   LIG    1        3.733  -8.534   6.082  0.00  0.00    +0.244 C 
ATOM      3  O   LIG    1        4.242  -7.870   6.963  0.00  0.00    -0.270 OA
ATOM      4  H   LIG    1        2.709  -8.455   4.348  0.00  0.00    +0.149 HD
ENDROOT
BRANCH   2   5
ATOM      5  C   LIG    1        3.793 -10.016   6.141  0.00  0.00    +0.043 A 
ATOM      6  C   LIG    1        4.420 -10.653   7.196  0.00  0.00    +0.083 A 
ATOM      7  C   LIG    1        4.458 -12.062   7.220  0.00  0.00    +0.250 A 
ATOM      8  O   LIG    1        5.006 -12.642   8.143  0.00  0.00    -0.268 OA
ATOM      9  N   LIG    1        3.889 -12.769   6.225  0.00  0.00    -0.326 N 
ATOM     10  H   LIG    1        3.920 -13.738   6.251  0.00  0.00    +0.169 HD
ATOM     11  C   LIG    1        3.273 -12.148   5.187  0.00  0.00    +0.020 A 
ATOM     12  C   LIG    1        3.206 -10.799   5.123  0.00  0.00    +0.034 A 
BRANCH  11  13
ATOM     13  C   LIG    1        2.649 -12.975   4.093  0.00  0.00    +0.056 C 
BRANCH  13  14
ATOM     14  C   LIG    1        3.714 -13.339   3.058  0.00  0.00    -0.011 C 
ATOM     15  C   LIG    1        4.763 -14.248   3.703  0.00  0.00    +0.007 C 
ATOM     16  C   LIG    1        3.058 -14.072   1.886  0.00  0.00    +0.007 C 
ENDBRANCH  13  14
ENDBRANCH  11  13
ENDBRANCH   2   5
BRANCH   1  17
ATOM     17  C   LIG    1        3.056  -6.462   4.993  0.00  0.00    +0.104 C 
BRANCH  17  18
ATOM     18  C   LIG    1        2.304  -6.032   3.732  0.00  0.00    +0.019 C 
BRANCH  18  19
ATOM     19  C   LIG    1        2.243  -4.504   3.671  0.00  0.00    +0.002 C 
BRANCH  19  20
ATOM     20  C   LIG    1        1.492  -4.074   2.410  0.00  0.00    +0.001 C 
BRANCH  20  21
ATOM     21  C   LIG    1        1.430  -2.546   2.350  0.00  0.00    +0.011 C 
BRANCH  21  22
ATOM     22  C   LIG    1        0.679  -2.115   1.088  0.00  0.00    +0.120 C 
BRANCH  22  23
ATOM     23  C   LIG    1        0.618  -0.611   1.029  0.00  0.00    +0.307 C 
ATOM     24  O   LIG    1        1.124   0.049   1.905  0.00  0.00    -0.251 OA
BRANCH  23  25
ATOM     25  O   LIG    1        0.002  -0.004   0.002  0.00  0.00    -0.468 OA
ATOM     26  C   LIG    1       -0.018   1.448   0.010  0.00  0.00    +0.280 C 
ENDBRANCH  23  25
ENDBRANCH  22  23
ENDBRANCH  21  22
ENDBRANCH  20  21
ENDBRANCH  19  20
ENDBRANCH  18  19
ENDBRANCH  17  18
ENDBRANCH   1  17
TORSDOF 11
