REMARK  Name = ZINC000082138774
REMARK                            x       y       z     vdW  Elec       q    Type
REMARK                         _______ _______ _______ _____ _____    ______ ____
ROOT
ATOM      1  C   LIG    1       -2.603   0.917   2.207  0.00  0.00    +0.043 C 
ATOM      2  C   LIG    1       -3.682   0.446   3.185  0.00  0.00    +0.029 C 
ATOM      3  C   LIG    1       -5.045   0.476   2.486  0.00  0.00    +0.108 C 
ATOM      4  N   LIG    1       -5.269   1.823   1.943  0.00  0.00    -0.301 N 
ATOM      5  C   LIG    1       -6.389   2.509   2.246  0.00  0.00    +0.216 C 
ATOM      6  O   LIG    1       -7.224   2.014   2.973  0.00  0.00    -0.276 OA
ATOM      7  C   LIG    1       -4.248   2.408   1.063  0.00  0.00    +0.108 C 
ATOM      8  C   LIG    1       -2.894   2.357   1.778  0.00  0.00    +0.029 C 
ENDROOT
BRANCH   1   9
ATOM      9  C   LIG    1       -1.256   0.856   2.880  0.00  0.00    +0.074 A 
ATOM     10  N   LIG    1       -0.942   1.413   4.020  0.00  0.00    -0.178 NA
ATOM     11  N   LIG    1        0.400   1.126   4.301  0.00  0.00    -0.284 N 
ATOM     12  H   LIG    1        0.893   1.420   5.083  0.00  0.00    +0.188 HD
ATOM     13  C   LIG    1        0.888   0.372   3.296  0.00  0.00    +0.113 A 
ATOM     14  C   LIG    1       -0.119   0.181   2.395  0.00  0.00    +0.023 A 
BRANCH  14  15
ATOM     15  C   LIG    1       -0.030  -0.592   1.131  0.00  0.00    -0.012 A 
ATOM     16  C   LIG    1       -0.743  -1.780   0.986  0.00  0.00    -0.043 A 
ATOM     17  C   LIG    1       -1.610  -2.282   2.112  0.00  0.00    +0.044 C 
ATOM     18  C   LIG    1       -0.658  -2.494  -0.192  0.00  0.00    +0.004 A 
ATOM     19  C   LIG    1        0.138  -2.035  -1.226  0.00  0.00    +0.000 A 
ATOM     20  C   LIG    1        0.852  -0.859  -1.086  0.00  0.00    +0.001 A 
ATOM     21  C   LIG    1        0.774  -0.137   0.088  0.00  0.00    +0.009 A 
ENDBRANCH  14  15
ENDBRANCH   1   9
BRANCH   5  22
ATOM     22  C   LIG    1       -6.604   3.889   1.681  0.00  0.00    +0.105 C 
BRANCH  22  23
ATOM     23  C   LIG    1       -7.942   4.440   2.176  0.00  0.00    +0.105 C 
BRANCH  23  24
ATOM     24  C   LIG    1       -8.157   5.821   1.611  0.00  0.00    +0.211 C 
ATOM     25  N   LIG    1       -9.277   6.506   1.914  0.00  0.00    -0.329 N 
ATOM     26  H   LIG    1       -9.945   6.111   2.496  0.00  0.00    +0.145 HD
ATOM     27  H   LIG    1       -9.415   7.395   1.550  0.00  0.00    +0.145 HD
ATOM     28  O   LIG    1       -7.322   6.315   0.883  0.00  0.00    -0.276 OA
ENDBRANCH  23  24
ENDBRANCH  22  23
ENDBRANCH   5  22
TORSDOF 5
