REMARK  Name = ZINC000025707849
REMARK                            x       y       z     vdW  Elec       q    Type
REMARK                         _______ _______ _______ _____ _____    ______ ____
ROOT
ATOM      1  C   LIG    1       -2.509  -0.379   0.012  0.00  0.00    +0.248 C 
ATOM      2  N   LIG    1       -3.149  -0.191   1.183  0.00  0.00    -0.311 N 
ATOM      3  H   LIG    1       -2.681  -0.336   2.020  0.00  0.00    +0.149 HD
ATOM      4  O   LIG    1       -3.096  -0.197  -1.038  0.00  0.00    -0.270 OA
ENDROOT
BRANCH   1   5
ATOM      5  C   LIG    1       -1.100  -0.804   0.003  0.00  0.00    +0.092 A 
ATOM      6  C   LIG    1        0.002  -0.004   0.002  0.00  0.00    +0.117 A 
ATOM      7  C   LIG    1       -0.018   1.503   0.010  0.00  0.00    +0.087 C 
ATOM      8  O   LIG    1        1.107  -0.761  -0.013  0.00  0.00    -0.441 OA
ATOM      9  C   LIG    1        0.804  -2.070  -0.014  0.00  0.00    +0.235 A 
ATOM     10  N   LIG    1        1.546  -3.188  -0.025  0.00  0.00    -0.202 NA
ATOM     11  C   LIG    1        0.994  -4.369  -0.029  0.00  0.00    +0.203 A 
ATOM     12  N   LIG    1       -0.351  -4.542  -0.024  0.00  0.00    -0.313 N 
ATOM     13  C   LIG    1       -1.173  -3.467  -0.012  0.00  0.00    +0.263 A 
ATOM     14  O   LIG    1       -2.384  -3.603  -0.007  0.00  0.00    -0.267 OA
ATOM     15  H   LIG    1       -0.725  -5.437  -0.028  0.00  0.00    +0.170 HD
ATOM     16  C   LIG    1       -0.586  -2.183  -0.008  0.00  0.00    +0.116 A 
ENDBRANCH   1   5
BRANCH   2  17
ATOM     17  C   LIG    1       -4.551   0.233   1.192  0.00  0.00    +0.109 C 
BRANCH  17  18
ATOM     18  C   LIG    1       -5.033   0.372   2.637  0.00  0.00    +0.054 C 
BRANCH  18  19
ATOM     19  C   LIG    1       -6.476   0.807   2.646  0.00  0.00    -0.046 A 
ATOM     20  C   LIG    1       -6.791   2.153   2.650  0.00  0.00    +0.005 A 
ATOM     21  C   LIG    1       -8.114   2.553   2.658  0.00  0.00    +0.020 A 
ATOM     22  C   LIG    1       -9.123   1.606   2.663  0.00  0.00    +0.041 A 
ATOM     23 CL   LIG    1      -10.785   2.108   2.673  0.00  0.00    -0.084 Cl
ATOM     24  C   LIG    1       -8.806   0.260   2.659  0.00  0.00    +0.020 A 
ATOM     25  C   LIG    1       -7.483  -0.139   2.645  0.00  0.00    +0.005 A 
ENDBRANCH  18  19
ENDBRANCH  17  18
ENDBRANCH   2  17
TORSDOF 4
