REMARK  Name = ZINC000083855399
REMARK                            x       y       z     vdW  Elec       q    Type
REMARK                         _______ _______ _______ _____ _____    ______ ____
ROOT
ATOM      1  N   LIG    1        1.391  -0.436  -5.227  0.00  0.00    -0.289 NA
ENDROOT
BRANCH   1   2
ATOM      2  C   LIG    1        2.073   0.555  -4.384  0.00  0.00    +0.057 C 
ATOM      3  C   LIG    1        2.322   0.185  -2.920  0.00  0.00    +0.020 C 
ATOM      4  C   LIG    1        1.255   1.222  -3.276  0.00  0.00    +0.020 C 
ENDBRANCH   1   2
BRANCH   1   5
ATOM      5  C   LIG    1        0.032  -0.699  -4.736  0.00  0.00    +0.161 C 
BRANCH   5   6
ATOM      6  C   LIG    1       -0.516  -1.931  -5.410  0.00  0.00    +0.154 A 
ATOM      7  N   LIG    1       -0.237  -3.121  -4.933  0.00  0.00    -0.207 NA
ATOM      8  C   LIG    1       -0.734  -4.185  -5.549  0.00  0.00    +0.180 A 
ATOM      9  S   LIG    1       -1.618  -3.451  -6.849  0.00  0.00    +0.049 S 
ATOM     10  N   LIG    1       -1.273  -1.816  -6.474  0.00  0.00    -0.191 NA
BRANCH   8  11
ATOM     11  N   LIG    1       -0.582  -5.525  -5.240  0.00  0.00    -0.315 N 
ATOM     12  C   LIG    1        0.220  -5.923  -4.081  0.00  0.00    +0.131 C 
ATOM     13  C   LIG    1       -1.224  -6.545  -6.073  0.00  0.00    +0.131 C 
ENDBRANCH   8  11
ENDBRANCH   5   6
ENDBRANCH   1   5
BRANCH   1  14
ATOM     14  C   LIG    1        1.369  -0.006  -6.632  0.00  0.00    +0.121 C 
BRANCH  14  15
ATOM     15  C   LIG    1        2.797   0.018  -7.180  0.00  0.00    +0.158 C 
BRANCH  15  16
ATOM     16  C   LIG    1        2.789   0.575  -8.580  0.00  0.00    -0.018 A 
ATOM     17  C   LIG    1        3.139   1.894  -8.801  0.00  0.00    +0.009 A 
ATOM     18  C   LIG    1        3.136   2.405 -10.085  0.00  0.00    +0.039 A 
ATOM     19  C   LIG    1        2.772   1.599 -11.149  0.00  0.00    +0.123 A 
ATOM     20  C   LIG    1        2.417   0.279 -10.927  0.00  0.00    +0.039 A 
ATOM     21  F   LIG    1        2.764   2.099 -12.405  0.00  0.00    -0.205 F 
ATOM     22  C   LIG    1        2.425  -0.231  -9.643  0.00  0.00    +0.009 A 
ENDBRANCH  15  16
BRANCH  15  23
ATOM     23  O   LIG    1        3.322  -1.311  -7.200  0.00  0.00    -0.386 OA
ATOM     24  H   LIG    1        2.816  -1.926  -7.749  0.00  0.00    +0.210 HD
ENDBRANCH  15  23
ENDBRANCH  14  15
ENDBRANCH   1  14
TORSDOF 8
