REMARK  Name = ZINC000095987622
REMARK                            x       y       z     vdW  Elec       q    Type
REMARK                         _______ _______ _______ _____ _____    ______ ____
ROOT
ATOM      1  C   LIG    1        0.463   1.069   5.881  0.00  0.00    +0.110 C 
ATOM      2  C   LIG    1        0.027   1.093   7.363  0.00  0.00    +0.169 C 
ATOM      3  O   LIG    1       -1.335   1.583   7.336  0.00  0.00    -0.370 OA
ATOM      4  C   LIG    1       -1.341   2.638   6.350  0.00  0.00    +0.162 C 
ATOM      5  C   LIG    1       -0.456   2.108   5.200  0.00  0.00    +0.053 C 
ENDROOT
BRANCH   2   6
ATOM      6  C   LIG    1        0.074  -0.294   7.951  0.00  0.00    -0.014 A 
ATOM      7  C   LIG    1        1.116  -0.656   8.784  0.00  0.00    +0.047 A 
ATOM      8  C   LIG    1        1.157  -1.928   9.327  0.00  0.00    +0.159 A 
ATOM      9  F   LIG    1        2.172  -2.281  10.146  0.00  0.00    -0.202 F 
ATOM     10  C   LIG    1        0.158  -2.841   9.027  0.00  0.00    +0.158 A 
ATOM     11  F   LIG    1        0.199  -4.085   9.552  0.00  0.00    -0.202 F 
ATOM     12  C   LIG    1       -0.881  -2.477   8.189  0.00  0.00    +0.041 A 
ATOM     13  C   LIG    1       -0.922  -1.204   7.651  0.00  0.00    +0.009 A 
ENDBRANCH   2   6
BRANCH   1  14
ATOM     14  N   LIG    1        0.249  -0.261   5.305  0.00  0.00    -0.294 N 
ATOM     15  H   LIG    1       -0.401  -0.862   5.701  0.00  0.00    +0.151 HD
ATOM     16  C   LIG    1        0.955  -0.648   4.225  0.00  0.00    +0.302 C 
ATOM     17  O   LIG    1        1.770   0.106   3.728  0.00  0.00    -0.253 OA
ATOM     18  N   LIG    1        0.759  -1.872   3.695  0.00  0.00    -0.287 N 
ATOM     19  C   LIG    1       -0.222  -2.780   4.293  0.00  0.00    +0.133 C 
BRANCH  18  20
ATOM     20  C   LIG    1        1.526  -2.293   2.520  0.00  0.00    +0.137 C 
BRANCH  20  21
ATOM     21  C   LIG    1        0.770  -1.902   1.249  0.00  0.00    +0.178 C 
BRANCH  21  22
ATOM     22  O   LIG    1        0.693  -0.477   1.160  0.00  0.00    -0.378 OA
BRANCH  22  23
ATOM     23  C   LIG    1        0.002  -0.004   0.002  0.00  0.00    +0.156 C 
ATOM     24  C   LIG    1       -0.019   1.526   0.010  0.00  0.00    +0.034 C 
ENDBRANCH  22  23
ENDBRANCH  21  22
ENDBRANCH  20  21
ENDBRANCH  18  20
ENDBRANCH   1  14
TORSDOF 6
