REMARK  Name = ZINC000012981427
REMARK                            x       y       z     vdW  Elec       q    Type
REMARK                         _______ _______ _______ _____ _____    ______ ____
ROOT
ATOM      1  N   LIG    1        5.970  -1.665  -0.965  0.00  0.00    -0.296 N 
ATOM      2  H   LIG    1        5.987  -2.173  -0.138  0.00  0.00    +0.151 HD
ATOM      3  C   LIG    1        7.036  -1.683  -1.789  0.00  0.00    +0.300 C 
ATOM      4  N   LIG    1        8.126  -2.406  -1.466  0.00  0.00    -0.299 N 
ATOM      5  H   LIG    1        8.143  -2.914  -0.639  0.00  0.00    +0.150 HD
ATOM      6  O   LIG    1        7.014  -1.046  -2.825  0.00  0.00    -0.253 OA
ENDROOT
BRANCH   1   7
ATOM      7  C   LIG    1        4.785  -0.879  -1.316  0.00  0.00    +0.077 C 
ATOM      8  C   LIG    1        4.022  -0.508  -0.042  0.00  0.00    +0.041 C 
ATOM      9  C   LIG    1        2.803   0.343  -0.411  0.00  0.00    +0.109 C 
ATOM     10  N   LIG    1        2.001  -0.384  -1.404  0.00  0.00    -0.301 N 
ATOM     11  C   LIG    1        0.688  -0.606  -1.198  0.00  0.00    +0.218 C 
ATOM     12  O   LIG    1        0.059  -1.293  -1.974  0.00  0.00    -0.275 OA
ATOM     13  C   LIG    1        2.660  -0.872  -2.624  0.00  0.00    +0.109 C 
ATOM     14  C   LIG    1        3.879  -1.704  -2.233  0.00  0.00    +0.041 C 
BRANCH  11  15
ATOM     15  C   LIG    1        0.001   0.001  -0.001  0.00  0.00    +0.069 C 
ATOM     16  C   LIG    1        0.185  -0.914   1.211  0.00  0.00    +0.017 C 
ATOM     17  C   LIG    1       -1.492   0.160  -0.297  0.00  0.00    +0.017 C 
ENDBRANCH  11  15
ENDBRANCH   1   7
BRANCH   4  18
ATOM     18  C   LIG    1        9.285  -2.426  -2.362  0.00  0.00    +0.110 C 
BRANCH  18  19
ATOM     19  C   LIG    1       10.377  -3.316  -1.764  0.00  0.00    +0.054 C 
BRANCH  19  20
ATOM     20  C   LIG    1       11.569  -3.336  -2.686  0.00  0.00    -0.043 A 
ATOM     21  C   LIG    1       12.573  -2.398  -2.537  0.00  0.00    +0.042 A 
ATOM     22  C   LIG    1       13.671  -2.420  -3.381  0.00  0.00    +0.124 A 
ATOM     23  F   LIG    1       14.656  -1.508  -3.232  0.00  0.00    -0.205 F 
ATOM     24  C   LIG    1       13.755  -3.375  -4.380  0.00  0.00    +0.038 A 
ATOM     25  C   LIG    1       12.747  -4.308  -4.531  0.00  0.00    +0.003 A 
ATOM     26  C   LIG    1       11.654  -4.288  -3.684  0.00  0.00    +0.004 A 
ENDBRANCH  19  20
ENDBRANCH  18  19
ENDBRANCH   4  18
TORSDOF 5
