REMARK  Name = ZINC000042688119
REMARK                            x       y       z     vdW  Elec       q    Type
REMARK                         _______ _______ _______ _____ _____    ______ ____
ROOT
ATOM      1  C   LIG    1        2.426  -1.353   2.032  0.00  0.00    +0.132 C 
ATOM      2  N   LIG    1        1.340  -1.472   1.056  0.00  0.00    -0.299 N 
ATOM      3  C   LIG    1        0.152  -0.883   1.295  0.00  0.00    +0.226 C 
ATOM      4  O   LIG    1       -0.774  -1.051   0.529  0.00  0.00    -0.275 OA
ENDROOT
BRANCH   2   5
ATOM      5  C   LIG    1        1.546  -2.229  -0.181  0.00  0.00    +0.098 C 
ATOM      6  C   LIG    1        1.891  -3.693   0.159  0.00  0.00    +0.188 C 
ATOM      7  S   LIG    1        3.014  -4.242  -1.173  0.00  0.00    -0.029 S 
ATOM      8  O   LIG    1        4.292  -4.534  -0.624  0.00  0.00    -0.174 OA
ATOM      9  O   LIG    1        2.354  -5.207  -1.981  0.00  0.00    -0.174 OA
ATOM     10  C   LIG    1        3.090  -2.647  -2.073  0.00  0.00    +0.168 C 
ATOM     11  C   LIG    1        2.717  -1.621  -0.972  0.00  0.00    +0.046 C 
ENDBRANCH   2   5
BRANCH   3  12
ATOM     12  C   LIG    1       -0.027  -0.016   2.515  0.00  0.00    +0.072 C 
ATOM     13  C   LIG    1        0.067  -0.790   3.840  0.00  0.00    +0.021 C 
ATOM     14  C   LIG    1       -1.447  -1.026   3.720  0.00  0.00    +0.003 C 
ATOM     15  C   LIG    1       -1.500   0.254   2.868  0.00  0.00    +0.021 C 
BRANCH  12  16
ATOM     16  C   LIG    1        0.824   1.227   2.479  0.00  0.00    -0.031 A 
ATOM     17  C   LIG    1        1.689   1.502   3.522  0.00  0.00    +0.005 A 
ATOM     18  C   LIG    1        2.471   2.642   3.490  0.00  0.00    +0.002 A 
ATOM     19  C   LIG    1        2.388   3.507   2.416  0.00  0.00    +0.020 A 
ATOM     20  C   LIG    1        1.522   3.233   1.372  0.00  0.00    +0.041 A 
ATOM     21 CL   LIG    1        1.417   4.319   0.022  0.00  0.00    -0.084 Cl
ATOM     22  C   LIG    1        0.744   2.089   1.402  0.00  0.00    +0.024 A 
ENDBRANCH  12  16
ENDBRANCH   3  12
TORSDOF 3
