REMARK  Name = ZINC000009570737
REMARK                            x       y       z     vdW  Elec       q    Type
REMARK                         _______ _______ _______ _____ _____    ______ ____
ROOT
ATOM      1  C   LIG    1        2.422   1.186  -0.015  0.00  0.00    +0.182 C 
ENDROOT
BRANCH   1   2
ATOM      2  C   LIG    1        3.554   2.181  -0.020  0.00  0.00    +0.174 A 
ATOM      3  N   LIG    1        4.166   2.703   1.065  0.00  0.00    -0.196 N 
ATOM      4  N   LIG    1        5.147   3.570   0.553  0.00  0.00    -0.039 NA
ATOM      5  N   LIG    1        5.055   3.516  -0.732  0.00  0.00    -0.023 NA
ATOM      6  N   LIG    1        4.122   2.702  -1.076  0.00  0.00    -0.111 NA
BRANCH   3   7
ATOM      7  C   LIG    1        3.887   2.433   2.413  0.00  0.00    +0.069 A 
ATOM      8  C   LIG    1        4.918   2.399   3.342  0.00  0.00    +0.029 A 
ATOM      9  C   LIG    1        4.640   2.139   4.670  0.00  0.00    +0.022 A 
ATOM     10  C   LIG    1        3.338   1.901   5.072  0.00  0.00    +0.041 A 
ATOM     11 CL   LIG    1        2.993   1.566   6.740  0.00  0.00    -0.084 Cl
ATOM     12  C   LIG    1        2.309   1.929   4.146  0.00  0.00    +0.022 A 
ATOM     13  C   LIG    1        2.581   2.194   2.818  0.00  0.00    +0.029 A 
ENDBRANCH   3   7
ENDBRANCH   1   2
BRANCH   1  14
ATOM     14  N   LIG    1        1.143   1.901   0.001  0.00  0.00    -0.304 N 
ATOM     15  C   LIG    1       -0.014   1.211   0.009  0.00  0.00    +0.245 C 
ATOM     16  O   LIG    1        0.002  -0.004   0.002  0.00  0.00    -0.270 OA
ATOM     17  H   LIG    1        1.130   2.871   0.007  0.00  0.00    +0.149 HD
BRANCH  15  18
ATOM     18  C   LIG    1       -1.305   1.933   0.019  0.00  0.00    +0.039 A 
ATOM     19  C   LIG    1       -1.327   3.329   0.021  0.00  0.00    +0.013 A 
ATOM     20  C   LIG    1       -2.534   3.997   0.029  0.00  0.00    +0.004 A 
ATOM     21  C   LIG    1       -3.721   3.288   0.037  0.00  0.00    +0.038 A 
ATOM     22  C   LIG    1       -3.708   1.903   0.035  0.00  0.00    +0.124 A 
ATOM     23  F   LIG    1       -4.872   1.216   0.043  0.00  0.00    -0.205 F 
ATOM     24  C   LIG    1       -2.506   1.222   0.021  0.00  0.00    +0.051 A 
ENDBRANCH  15  18
ENDBRANCH   1  14
TORSDOF 4
