REMARK  Name = ZINC000000240397
REMARK                            x       y       z     vdW  Elec       q    Type
REMARK                         _______ _______ _______ _____ _____    ______ ____
ROOT
ATOM      1  N   LIG    1        0.822  -6.233  -1.335  0.00  0.00    -0.202 N 
ATOM      2  C   LIG    1        0.298  -7.063  -0.415  0.00  0.00    +0.258 C 
ATOM      3  O   LIG    1       -0.288  -6.725   0.593  0.00  0.00    -0.269 OA
ATOM      4  C   LIG    1        0.555  -8.458  -0.839  0.00  0.00    +0.050 A 
ATOM      5  C   LIG    1        0.256  -9.700  -0.301  0.00  0.00    +0.014 A 
ATOM      6  C   LIG    1        0.649 -10.851  -0.963  0.00  0.00    +0.016 A 
ATOM      7  C   LIG    1        1.345 -10.767  -2.169  0.00  0.00    +0.060 A 
ATOM      8  C   LIG    1        1.651  -9.518  -2.718  0.00  0.00    +0.028 A 
ATOM      9  C   LIG    1        1.259  -8.366  -2.058  0.00  0.00    +0.051 A 
ATOM     10  C   LIG    1        1.400  -6.921  -2.335  0.00  0.00    +0.258 C 
ATOM     11  O   LIG    1        1.950  -6.436  -3.304  0.00  0.00    -0.269 OA
ENDROOT
BRANCH   1  12
ATOM     12  C   LIG    1        0.767  -4.839  -1.264  0.00  0.00    +0.045 A 
ATOM     13  C   LIG    1        0.144  -4.224  -0.183  0.00  0.00    +0.025 A 
ATOM     14  C   LIG    1        0.088  -2.850  -0.109  0.00  0.00    +0.017 A 
ATOM     15  C   LIG    1        0.659  -2.074  -1.122  0.00  0.00    +0.059 A 
ATOM     16  C   LIG    1        1.279  -2.696  -2.209  0.00  0.00    +0.017 A 
ATOM     17  C   LIG    1        1.336  -4.070  -2.273  0.00  0.00    +0.025 A 
BRANCH  15  18
ATOM     18  C   LIG    1        0.601  -0.602  -1.047  0.00  0.00    +0.339 C 
ATOM     19  O   LIG    1        1.093   0.071  -1.930  0.00  0.00    -0.245 OA
BRANCH  18  20
ATOM     20  O   LIG    1        0.002  -0.004   0.002  0.00  0.00    -0.464 OA
ATOM     21  C   LIG    1       -0.018   1.448   0.010  0.00  0.00    +0.280 C 
ENDBRANCH  18  20
ENDBRANCH  15  18
ENDBRANCH   1  12
BRANCH   7  22
ATOM     22  C   LIG    1        1.761 -12.002  -2.868  0.00  0.00    +0.339 C 
ATOM     23  O   LIG    1        2.367 -11.931  -3.918  0.00  0.00    -0.245 OA
BRANCH  22  24
ATOM     24  O   LIG    1        1.467 -13.206  -2.341  0.00  0.00    -0.464 OA
ATOM     25  C   LIG    1        1.906 -14.375  -3.082  0.00  0.00    +0.280 C 
ENDBRANCH  22  24
ENDBRANCH   7  22
TORSDOF 5
