REMARK  Name = ZINC000082161906
REMARK                            x       y       z     vdW  Elec       q    Type
REMARK                         _______ _______ _______ _____ _____    ______ ____
ROOT
ATOM      1  C   LIG    1        0.185  -4.783   1.244  0.00  0.00    +0.220 C 
ATOM      2  C   LIG    1       -1.058  -4.502   2.092  0.00  0.00    +0.111 C 
ATOM      3  C   LIG    1       -2.287  -5.095   1.399  0.00  0.00    +0.136 C 
ATOM      4  N   LIG    1       -2.115  -6.545   1.246  0.00  0.00    +0.239 N 
ATOM      5  H   LIG    1       -1.956  -6.961   2.151  0.00  0.00    +0.204 HD
ATOM      6  C   LIG    1       -0.966  -6.821   0.374  0.00  0.00    +0.136 C 
ATOM      7  C   LIG    1        0.313  -6.294   1.028  0.00  0.00    +0.111 C 
ENDROOT
BRANCH   1   8
ATOM      8  C   LIG    1        1.410  -4.270   1.956  0.00  0.00    +0.399 C 
ATOM      9  O   LIG    1        1.700  -4.703   3.059  0.00  0.00    -0.242 OA
ATOM     10  O   LIG    1        2.111  -3.422   1.431  0.00  0.00    -0.242 OA
ENDBRANCH   1   8
BRANCH   4  11
ATOM     11  C   LIG    1       -3.327  -7.120   0.649  0.00  0.00    +0.171 C 
BRANCH  11  12
ATOM     12  C   LIG    1       -3.201  -8.621   0.604  0.00  0.00    +0.036 A 
ATOM     13  C   LIG    1       -3.446  -9.384   1.742  0.00  0.00    +0.124 A 
ATOM     14  N   LIG    1       -3.341 -10.703   1.704  0.00  0.00    -0.240 NA
ATOM     15  C   LIG    1       -2.993 -11.338   0.601  0.00  0.00    +0.113 A 
ATOM     16  C   LIG    1       -2.731 -10.644  -0.563  0.00  0.00    +0.020 A 
ATOM     17  C   LIG    1       -2.835  -9.259  -0.567  0.00  0.00    +0.014 A 
BRANCH  13  18
ATOM     18  N   LIG    1       -3.815  -8.756   2.926  0.00  0.00    -0.343 N 
ATOM     19  H   LIG    1       -3.994  -9.284   3.720  0.00  0.00    +0.144 HD
ATOM     20  H   LIG    1       -3.893  -7.790   2.958  0.00  0.00    +0.144 HD
ENDBRANCH  13  18
ENDBRANCH  11  12
ENDBRANCH   4  11
BRANCH   1  21
ATOM     21  O   LIG    1        0.059  -4.129  -0.021  0.00  0.00    -0.474 OA
BRANCH  21  22
ATOM     22  C   LIG    1       -0.094  -2.779  -0.004  0.00  0.00    +0.122 A 
ATOM     23  C   LIG    1        0.011  -2.082   1.191  0.00  0.00    +0.046 A 
ATOM     24  C   LIG    1       -0.139  -0.709   1.204  0.00  0.00    +0.007 A 
ATOM     25  C   LIG    1       -0.404  -0.030   0.029  0.00  0.00    -0.050 A 
ATOM     26  C   LIG    1       -0.572   1.468   0.047  0.00  0.00    +0.044 C 
ATOM     27  C   LIG    1       -0.508  -0.722  -1.163  0.00  0.00    +0.007 A 
ATOM     28  C   LIG    1       -0.354  -2.095  -1.183  0.00  0.00    +0.046 A 
ENDBRANCH  21  22
ENDBRANCH   1  21
TORSDOF 6
