REMARK  Name = ZINC000042678509
REMARK                            x       y       z     vdW  Elec       q    Type
REMARK                         _______ _______ _______ _____ _____    ______ ____
ROOT
ATOM      1  S   LIG    1        0.000  -0.824  -1.437  0.00  0.00    +0.061 S 
ATOM      2  O   LIG    1       -0.525  -2.116  -1.161  0.00  0.00    -0.153 OA
ATOM      3  O   LIG    1       -0.566   0.055  -2.399  0.00  0.00    -0.153 OA
ENDROOT
BRANCH   1   4
ATOM      4  C   LIG    1        1.682  -1.060  -1.906  0.00  0.00    +0.109 A 
ATOM      5  C   LIG    1        2.360  -2.194  -1.495  0.00  0.00    +0.078 A 
ATOM      6  C   LIG    1        3.680  -2.377  -1.870  0.00  0.00    +0.164 A 
ATOM      7  O   LIG    1        4.359  -3.494  -1.476  0.00  0.00    -0.488 OA
ATOM      8  C   LIG    1        5.413  -3.284  -0.535  0.00  0.00    +0.232 C 
ATOM      9  C   LIG    1        6.699  -2.888  -1.244  0.00  0.00    +0.082 C 
ATOM     10  C   LIG    1        6.582  -1.546  -1.949  0.00  0.00    +0.232 C 
ATOM     11  O   LIG    1        5.624  -1.611  -3.007  0.00  0.00    -0.488 OA
ATOM     12  C   LIG    1        4.322  -1.423  -2.646  0.00  0.00    +0.162 A 
ATOM     13  C   LIG    1        3.642  -0.286  -3.050  0.00  0.00    +0.051 A 
ATOM     14  C   LIG    1        2.321  -0.108  -2.678  0.00  0.00    +0.032 A 
ENDBRANCH   1   4
BRANCH   1  15
ATOM     15  N   LIG    1        0.002  -0.004   0.002  0.00  0.00    -0.175 NA
ATOM     16  C   LIG    1       -0.018   1.461   0.010  0.00  0.00    +0.132 C 
BRANCH  15  17
ATOM     17  C   LIG    1        0.024  -0.743   1.267  0.00  0.00    +0.144 C 
BRANCH  17  18
ATOM     18  C   LIG    1       -1.384  -0.909   1.776  0.00  0.00    -0.029 A 
ATOM     19  C   LIG    1       -1.954   0.041   2.610  0.00  0.00    +0.024 A 
ATOM     20  C   LIG    1       -3.248  -0.145   3.057  0.00  0.00    +0.111 A 
ATOM     21  N   LIG    1       -3.939  -1.210   2.701  0.00  0.00    -0.263 NA
ATOM     22  C   LIG    1       -3.429  -2.134   1.910  0.00  0.00    +0.111 A 
ATOM     23  C   LIG    1       -2.143  -2.013   1.418  0.00  0.00    +0.024 A 
ENDBRANCH  17  18
ENDBRANCH  15  17
ENDBRANCH   1  15
TORSDOF 4
