REMARK  Name = ZINC000222107891
REMARK                            x       y       z     vdW  Elec       q    Type
REMARK                         _______ _______ _______ _____ _____    ______ ____
ROOT
ATOM      1  C   LIG    1       -1.341  -3.329  -0.014  0.00  0.00    +0.179 C 
ENDROOT
BRANCH   1   2
ATOM      2  N   LIG    1       -0.767  -4.267   0.955  0.00  0.00    -0.285 N 
ATOM      3  C   LIG    1       -1.540  -5.224   1.505  0.00  0.00    +0.303 C 
ATOM      4  N   LIG    1       -0.990  -6.148   2.319  0.00  0.00    -0.283 N 
ATOM      5  C   LIG    1       -1.795  -7.264   2.835  0.00  0.00    +0.140 C 
ATOM      6  C   LIG    1       -1.677  -7.301   4.357  0.00  0.00    +0.135 C 
ATOM      7  C   LIG    1       -0.199  -7.356   4.751  0.00  0.00    +0.017 C 
ATOM      8  C   LIG    1       -0.081  -7.423   6.275  0.00  0.00    +0.010 C 
ATOM      9  C   LIG    1        0.514  -6.102   4.240  0.00  0.00    +0.025 C 
ATOM     10  C   LIG    1        0.422  -6.055   2.711  0.00  0.00    +0.110 C 
ATOM     11  O   LIG    1       -2.732  -5.255   1.268  0.00  0.00    -0.253 OA
ATOM     12  H   LIG    1        0.169  -4.198   1.200  0.00  0.00    +0.151 HD
BRANCH   6  13
ATOM     13  O   LIG    1       -2.274  -6.125   4.907  0.00  0.00    -0.390 OA
ATOM     14  H   LIG    1       -3.213  -6.025   4.697  0.00  0.00    +0.210 HD
ENDBRANCH   6  13
ENDBRANCH   1   2
BRANCH   1  15
ATOM     15  C   LIG    1       -1.307  -3.945  -1.389  0.00  0.00    +0.016 A 
ATOM     16  C   LIG    1       -0.449  -4.994  -1.655  0.00  0.00    +0.009 A 
ATOM     17  C   LIG    1       -0.417  -5.559  -2.917  0.00  0.00    +0.001 A 
ATOM     18  C   LIG    1       -1.244  -5.074  -3.913  0.00  0.00    +0.003 A 
ATOM     19  C   LIG    1       -2.103  -4.024  -3.649  0.00  0.00    +0.039 A 
ATOM     20  C   LIG    1       -2.140  -3.463  -2.385  0.00  0.00    +0.129 A 
ATOM     21  F   LIG    1       -2.980  -2.436  -2.125  0.00  0.00    -0.205 F 
ENDBRANCH   1  15
BRANCH   1  22
ATOM     22  C   LIG    1       -0.539  -2.054  -0.014  0.00  0.00    +0.196 A 
ATOM     23  N   LIG    1       -1.034  -0.803  -0.006  0.00  0.00    -0.194 NA
ATOM     24  C   LIG    1        0.011  -0.010  -0.011  0.00  0.00    +0.224 A 
ATOM     25  C   LIG    1       -0.005   1.497  -0.004  0.00  0.00    +0.112 C 
ATOM     26  O   LIG    1        1.093  -0.794  -0.028  0.00  0.00    -0.338 OA
ATOM     27  N   LIG    1        0.757  -1.960  -0.024  0.00  0.00    -0.059 NA
ENDBRANCH   1  22
TORSDOF 4
