REMARK  Name = ZINC000058192603
REMARK                            x       y       z     vdW  Elec       q    Type
REMARK                         _______ _______ _______ _____ _____    ______ ____
ROOT
ATOM      1  C   LIG    1       -1.650  -1.727   0.396  0.00  0.00    +0.234 C 
ATOM      2  N   LIG    1       -1.175  -2.311   1.513  0.00  0.00    -0.310 N 
ATOM      3  H   LIG    1       -0.637  -1.798   2.137  0.00  0.00    +0.149 HD
ATOM      4  O   LIG    1       -2.251  -2.387  -0.425  0.00  0.00    -0.274 OA
ENDROOT
BRANCH   2   5
ATOM      5  C   LIG    1       -1.469  -3.720   1.785  0.00  0.00    +0.139 C 
BRANCH   5   6
ATOM      6  C   LIG    1       -0.826  -4.125   3.087  0.00  0.00    -0.030 A 
ATOM      7  C   LIG    1       -1.523  -3.989   4.273  0.00  0.00    +0.007 A 
ATOM      8  C   LIG    1       -0.938  -4.364   5.466  0.00  0.00    +0.028 A 
ATOM      9  C   LIG    1        0.356  -4.868   5.475  0.00  0.00    +0.065 A 
ATOM     10  C   LIG    1        1.055  -4.999   4.283  0.00  0.00    +0.028 A 
ATOM     11  C   LIG    1        0.463  -4.627   3.092  0.00  0.00    +0.007 A 
BRANCH   9  12
ATOM     12  N   LIG    1        0.954  -5.245   6.686  0.00  0.00    -0.240 N 
ATOM     13  C   LIG    1        0.386  -5.175   7.911  0.00  0.00    +0.114 A 
ATOM     14  C   LIG    1        1.288  -5.630   8.810  0.00  0.00    +0.041 A 
ATOM     15  C   LIG    1        2.447  -5.990   8.114  0.00  0.00    +0.135 A 
ATOM     16  N   LIG    1        2.246  -5.765   6.840  0.00  0.00    -0.175 NA
ENDBRANCH   9  12
ENDBRANCH   5   6
ENDBRANCH   2   5
BRANCH   1  17
ATOM     17  C   LIG    1       -1.436  -0.253   0.166  0.00  0.00    +0.164 C 
BRANCH  17  18
ATOM     18  N   LIG    1       -2.399   0.232  -0.827  0.00  0.00    -0.290 N 
ATOM     19  C   LIG    1       -3.388   1.286  -0.575  0.00  0.00    +0.109 C 
ATOM     20  C   LIG    1       -3.856   1.754  -1.970  0.00  0.00    +0.028 C 
ATOM     21  C   LIG    1       -3.582   0.500  -2.832  0.00  0.00    +0.097 C 
ATOM     22  C   LIG    1       -2.485  -0.228  -2.087  0.00  0.00    +0.216 C 
ATOM     23  O   LIG    1       -1.789  -1.104  -2.556  0.00  0.00    -0.276 OA
ENDBRANCH  17  18
BRANCH  17  24
ATOM     24  C   LIG    1       -0.014  -0.018  -0.346  0.00  0.00    +0.012 C 
ATOM     25  C   LIG    1        0.990  -0.400   0.744  0.00  0.00    +0.009 C 
ATOM     26  C   LIG    1        0.162   1.459  -0.706  0.00  0.00    +0.009 C 
ENDBRANCH  17  24
ENDBRANCH   1  17
TORSDOF 6
