REMARK  Name = ZINC000025885843
REMARK                            x       y       z     vdW  Elec       q    Type
REMARK                         _______ _______ _______ _____ _____    ______ ____
ROOT
ATOM      1  C   LIG    1        2.966  -0.176  -1.457  0.00  0.00    +0.235 C 
ATOM      2  N   LIG    1        4.210   0.280  -1.702  0.00  0.00    -0.284 N 
ATOM      3  H   LIG    1        4.776   0.564  -0.967  0.00  0.00    +0.155 HD
ATOM      4  O   LIG    1        2.228  -0.453  -2.380  0.00  0.00    -0.274 OA
ENDROOT
BRANCH   2   5
ATOM      5  C   LIG    1        4.686   0.344  -3.018  0.00  0.00    +0.034 A 
ATOM      6  C   LIG    1        6.024   0.087  -3.286  0.00  0.00    +0.025 A 
ATOM      7  C   LIG    1        6.493   0.150  -4.583  0.00  0.00    +0.025 A 
ATOM      8  C   LIG    1        5.627   0.471  -5.619  0.00  0.00    +0.035 A 
ATOM      9  C   LIG    1        4.289   0.729  -5.352  0.00  0.00    +0.025 A 
ATOM     10  C   LIG    1        3.818   0.660  -4.056  0.00  0.00    +0.025 A 
BRANCH   8  11
ATOM     11  N   LIG    1        6.103   0.535  -6.936  0.00  0.00    -0.270 N 
ATOM     12  H   LIG    1        6.796  -0.076  -7.231  0.00  0.00    +0.156 HD
ATOM     13  C   LIG    1        5.599   1.447  -7.791  0.00  0.00    +0.301 C 
ATOM     14  O   LIG    1        4.673   2.157  -7.447  0.00  0.00    -0.253 OA
ATOM     15  N   LIG    1        6.120   1.571  -9.027  0.00  0.00    -0.313 N 
ATOM     16  H   LIG    1        6.859   1.005  -9.302  0.00  0.00    +0.146 HD
ATOM     17  H   LIG    1        5.757   2.228  -9.643  0.00  0.00    +0.146 HD
ENDBRANCH   8  11
ENDBRANCH   2   5
BRANCH   1  18
ATOM     18  C   LIG    1        2.490  -0.344  -0.037  0.00  0.00    +0.210 C 
BRANCH  18  19
ATOM     19  N   LIG    1        1.116  -0.850  -0.038  0.00  0.00    -0.259 N 
ATOM     20  C   LIG    1        0.773  -2.151  -0.034  0.00  0.00    +0.252 C 
ATOM     21  O   LIG    1        1.552  -3.085  -0.033  0.00  0.00    -0.270 OA
ATOM     22  C   LIG    1       -0.694  -2.263  -0.038  0.00  0.00    +0.046 A 
ATOM     23  C   LIG    1       -1.202  -0.949  -0.038  0.00  0.00    +0.008 A 
ATOM     24  C   LIG    1       -2.575  -0.739  -0.041  0.00  0.00    +0.010 A 
ATOM     25  C   LIG    1       -3.434  -1.821  -0.044  0.00  0.00    +0.001 A 
ATOM     26  C   LIG    1       -2.936  -3.114  -0.044  0.00  0.00    +0.001 A 
ATOM     27  C   LIG    1       -1.575  -3.341  -0.041  0.00  0.00    +0.014 A 
ATOM     28  C   LIG    1       -0.029  -0.053  -0.035  0.00  0.00    +0.038 C 
ATOM     29  C   LIG    1       -0.059   1.283  -0.034  0.00  0.00    +0.034 C 
ENDBRANCH  18  19
ENDBRANCH   1  18
TORSDOF 4
