REMARK  Name = ZINC000005592857
REMARK                            x       y       z     vdW  Elec       q    Type
REMARK                         _______ _______ _______ _____ _____    ______ ____
ROOT
ATOM      1  N   LIG    1        3.489  -3.965   5.801  0.00  0.00    -0.285 N 
ATOM      2  C   LIG    1        3.571  -3.252   6.941  0.00  0.00    +0.227 C 
ATOM      3  O   LIG    1        2.994  -2.190   7.036  0.00  0.00    -0.275 OA
ATOM      4  H   LIG    1        3.886  -4.848   5.751  0.00  0.00    +0.155 HD
ENDROOT
BRANCH   1   5
ATOM      5  C   LIG    1        2.832  -3.432   4.692  0.00  0.00    +0.033 A 
ATOM      6  C   LIG    1        2.876  -2.062   4.451  0.00  0.00    +0.024 A 
ATOM      7  C   LIG    1        2.229  -1.533   3.357  0.00  0.00    +0.017 A 
ATOM      8  C   LIG    1        1.527  -2.374   2.488  0.00  0.00    +0.059 A 
ATOM      9  C   LIG    1        1.481  -3.749   2.736  0.00  0.00    +0.017 A 
ATOM     10  C   LIG    1        2.135  -4.272   3.829  0.00  0.00    +0.024 A 
BRANCH   8  11
ATOM     11  C   LIG    1        0.833  -1.811   1.316  0.00  0.00    +0.339 C 
ATOM     12  O   LIG    1        0.219  -2.542   0.564  0.00  0.00    -0.245 OA
BRANCH  11  13
ATOM     13  O   LIG    1        0.878  -0.485   1.078  0.00  0.00    -0.461 OA
BRANCH  13  14
ATOM     14  C   LIG    1        0.171  -0.001  -0.094  0.00  0.00    +0.229 C 
ATOM     15  C   LIG    1        0.335   1.517  -0.198  0.00  0.00    +0.048 C 
ENDBRANCH  13  14
ENDBRANCH  11  13
ENDBRANCH   8  11
ENDBRANCH   1   5
BRANCH   2  16
ATOM     16  C   LIG    1        4.381  -3.775   8.100  0.00  0.00    +0.172 C 
BRANCH  16  17
ATOM     17  S   LIG    1        4.296  -2.598   9.477  0.00  0.00    -0.088 S 
BRANCH  17  18
ATOM     18  C   LIG    1        5.285  -3.366  10.717  0.00  0.00    +0.160 A 
ATOM     19  S   LIG    1        5.603  -2.711  12.320  0.00  0.00    -0.025 S 
ATOM     20  C   LIG    1        6.590  -4.114  12.711  0.00  0.00    +0.180 A 
ATOM     21  N   LIG    1        6.618  -4.913  11.691  0.00  0.00    -0.125 NA
ATOM     22  N   LIG    1        5.899  -4.501  10.591  0.00  0.00    -0.133 NA
BRANCH  20  23
ATOM     23  N   LIG    1        7.241  -4.329  13.921  0.00  0.00    -0.336 N 
ATOM     24  H   LIG    1        7.167  -3.676  14.634  0.00  0.00    +0.144 HD
ATOM     25  H   LIG    1        7.770  -5.132  14.051  0.00  0.00    +0.144 HD
ENDBRANCH  20  23
ENDBRANCH  17  18
ENDBRANCH  16  17
ENDBRANCH   2  16
TORSDOF 8
