REMARK  Name = ZINC000012979362
REMARK                            x       y       z     vdW  Elec       q    Type
REMARK                         _______ _______ _______ _____ _____    ______ ____
ROOT
ATOM      1  N   LIG    1        1.323  -4.004  -2.285  0.00  0.00    -0.280 N 
ATOM      2  C   LIG    1        0.864  -4.752  -1.262  0.00  0.00    +0.255 C 
ATOM      3  O   LIG    1        0.324  -4.219  -0.316  0.00  0.00    -0.272 OA
ATOM      4  H   LIG    1        1.683  -4.433  -3.077  0.00  0.00    +0.155 HD
ENDROOT
BRANCH   1   5
ATOM      5  C   LIG    1        1.282  -2.606  -2.204  0.00  0.00    +0.079 A 
ATOM      6  C   LIG    1        1.273  -1.982  -0.966  0.00  0.00    +0.072 A 
ATOM      7  C   LIG    1        1.227  -0.598  -0.889  0.00  0.00    +0.122 A 
ATOM      8  C   LIG    1        1.201   0.162  -2.049  0.00  0.00    +0.049 A 
ATOM      9  C   LIG    1        1.215  -0.458  -3.285  0.00  0.00    +0.051 A 
ATOM     10  C   LIG    1        1.255  -1.840  -3.368  0.00  0.00    +0.141 A 
BRANCH   7  11
ATOM     11  O   LIG    1        1.213   0.015   0.325  0.00  0.00    -0.495 OA
ATOM     12  C   LIG    1        1.165   1.443   0.330  0.00  0.00    +0.277 C 
ENDBRANCH   7  11
BRANCH  10  13
ATOM     13  O   LIG    1        1.269  -2.449  -4.584  0.00  0.00    -0.493 OA
ATOM     14  C   LIG    1        1.241  -1.601  -5.734  0.00  0.00    +0.277 C 
ENDBRANCH  10  13
ENDBRANCH   1   5
BRANCH   2  15
ATOM     15  C   LIG    1        1.022  -6.250  -1.295  0.00  0.00    +0.324 C 
BRANCH  15  16
ATOM     16  O   LIG    1        0.460  -6.814  -0.108  0.00  0.00    -0.483 OA
BRANCH  16  17
ATOM     17  C   LIG    1        0.520  -8.166   0.021  0.00  0.00    +0.125 A 
ATOM     18  C   LIG    1       -0.006  -8.779   1.149  0.00  0.00    +0.095 A 
ATOM     19  C   LIG    1        0.050 -10.157   1.278  0.00  0.00    +0.170 A 
ATOM     20  O   LIG    1       -0.389 -10.991   2.266  0.00  0.00    -0.452 OA
ATOM     21  C   LIG    1        0.306 -12.234   2.056  0.00  0.00    +0.466 C 
ATOM     22  O   LIG    1        0.580 -12.239   0.642  0.00  0.00    -0.453 OA
ATOM     23  C   LIG    1        0.645 -10.924   0.279  0.00  0.00    +0.166 A 
ATOM     24  C   LIG    1        1.175 -10.307  -0.842  0.00  0.00    +0.053 A 
ATOM     25  C   LIG    1        1.113  -8.932  -0.971  0.00  0.00    +0.049 A 
ENDBRANCH  16  17
ENDBRANCH  15  16
ENDBRANCH   2  15
TORSDOF 6
