REMARK  Name = ZINC000095992429
REMARK                            x       y       z     vdW  Elec       q    Type
REMARK                         _______ _______ _______ _____ _____    ______ ____
ROOT
ATOM      1  N   LIG    1       -2.024  -0.360  -1.327  0.00  0.00    -0.293 NA
ATOM      2  C   LIG    1       -3.466  -0.637  -1.276  0.00  0.00    +0.100 C 
ATOM      3  C   LIG    1       -4.076  -0.408  -2.662  0.00  0.00    +0.100 C 
ATOM      4  N   LIG    1       -3.823   0.978  -3.082  0.00  0.00    -0.295 NA
ATOM      5  C   LIG    1       -2.381   1.255  -3.132  0.00  0.00    +0.100 C 
ATOM      6  C   LIG    1       -1.771   1.025  -1.747  0.00  0.00    +0.100 C 
ENDROOT
BRANCH   4   7
ATOM      7  C   LIG    1       -4.459   1.260  -4.376  0.00  0.00    +0.079 C 
ATOM      8  C   LIG    1       -5.992   1.209  -4.222  0.00  0.00    +0.184 C 
ATOM      9  S   LIG    1       -6.614   0.599  -5.828  0.00  0.00    -0.029 S 
ATOM     10  O   LIG    1       -7.241  -0.662  -5.643  0.00  0.00    -0.174 OA
ATOM     11  O   LIG    1       -7.309   1.644  -6.495  0.00  0.00    -0.174 OA
ATOM     12  C   LIG    1       -4.980   0.353  -6.622  0.00  0.00    +0.167 C 
ATOM     13  C   LIG    1       -4.033   0.196  -5.404  0.00  0.00    +0.043 C 
ENDBRANCH   4   7
BRANCH   1  14
ATOM     14  C   LIG    1       -1.388  -0.642  -0.033  0.00  0.00    +0.087 C 
BRANCH  14  15
ATOM     15  C   LIG    1       -1.550  -2.103   0.298  0.00  0.00    -0.030 A 
ATOM     16  C   LIG    1       -1.831  -2.490   1.595  0.00  0.00    +0.008 A 
ATOM     17  C   LIG    1       -1.984  -3.830   1.899  0.00  0.00    +0.038 A 
ATOM     18  C   LIG    1       -1.845  -4.785   0.906  0.00  0.00    +0.123 A 
ATOM     19  F   LIG    1       -1.989  -6.095   1.203  0.00  0.00    -0.205 F 
ATOM     20  C   LIG    1       -1.558  -4.396  -0.391  0.00  0.00    +0.038 A 
ATOM     21  C   LIG    1       -1.411  -3.056  -0.694  0.00  0.00    +0.008 A 
ENDBRANCH  14  15
BRANCH  14  22
ATOM     22  C   LIG    1        0.101  -0.298  -0.110  0.00  0.00    +0.020 C 
ATOM     23  C   LIG    1        0.748  -0.522   1.258  0.00  0.00    +0.006 C 
ENDBRANCH  14  22
ENDBRANCH   1  14
TORSDOF 4
