REMARK  Name = ZINC000082138280
REMARK                            x       y       z     vdW  Elec       q    Type
REMARK                         _______ _______ _______ _____ _____    ______ ____
ROOT
ATOM      1  C   LIG    1        0.216  -0.544   3.088  0.00  0.00    +0.252 C 
ATOM      2  O   LIG    1        0.963  -0.850   3.998  0.00  0.00    -0.270 OA
ATOM      3  N   LIG    1       -1.102  -0.390   3.321  0.00  0.00    -0.284 N 
ATOM      4  C   LIG    1       -1.670  -0.586   4.666  0.00  0.00    +0.091 C 
ATOM      5  C   LIG    1       -0.562  -0.989   5.641  0.00  0.00    +0.029 C 
ATOM      6  C   LIG    1       -2.296   0.743   5.112  0.00  0.00    +0.136 C 
ATOM      7  N   LIG    1       -3.118   1.308   4.051  0.00  0.00    -0.268 N 
ATOM      8  C   LIG    1       -2.993   1.012   2.757  0.00  0.00    +0.237 C 
ATOM      9  O   LIG    1       -3.684   1.607   1.957  0.00  0.00    -0.274 OA
ATOM     10  C   LIG    1       -2.033  -0.026   2.243  0.00  0.00    +0.204 C 
ENDROOT
BRANCH   7  11
ATOM     11  C   LIG    1       -4.110   2.226   4.415  0.00  0.00    +0.036 A 
ATOM     12  C   LIG    1       -5.394   1.785   4.704  0.00  0.00    +0.024 A 
ATOM     13  C   LIG    1       -6.371   2.693   5.063  0.00  0.00    +0.005 A 
ATOM     14  C   LIG    1       -6.070   4.041   5.135  0.00  0.00    -0.050 A 
ATOM     15  C   LIG    1       -7.138   5.029   5.527  0.00  0.00    +0.044 C 
ATOM     16  C   LIG    1       -4.792   4.484   4.849  0.00  0.00    +0.005 A 
ATOM     17  C   LIG    1       -3.809   3.579   4.495  0.00  0.00    +0.024 A 
ENDBRANCH   7  11
BRANCH   1  18
ATOM     18  C   LIG    1        0.753  -0.340   1.730  0.00  0.00    +0.101 A 
ATOM     19  C   LIG    1        1.250   0.901   1.117  0.00  0.00    +0.093 A 
ATOM     20  C   LIG    1        1.328   2.266   1.751  0.00  0.00    +0.070 C 
ATOM     21  N   LIG    1        1.613   0.569  -0.086  0.00  0.00    -0.083 NA
ATOM     22  O   LIG    1        1.431  -0.602  -0.312  0.00  0.00    -0.359 OA
ATOM     23  C   LIG    1        0.905  -1.261   0.723  0.00  0.00    +0.147 A 
ATOM     24  C   LIG    1        0.555  -2.726   0.777  0.00  0.00    +0.090 C 
ENDBRANCH   1  18
TORSDOF 2
