REMARK  Name = ZINC000042368414
REMARK                            x       y       z     vdW  Elec       q    Type
REMARK                         _______ _______ _______ _____ _____    ______ ____
ROOT
ATOM      1  N   LIG    1       -1.372  -0.511   0.012  0.00  0.00    -0.307 N 
ATOM      2  C   LIG    1       -2.029  -0.655   1.181  0.00  0.00    +0.246 C 
ATOM      3  O   LIG    1       -1.480  -0.364   2.226  0.00  0.00    -0.270 OA
ATOM      4  H   LIG    1       -1.810  -0.743  -0.822  0.00  0.00    +0.149 HD
ENDROOT
BRANCH   2   5
ATOM      5  C   LIG    1       -3.413  -1.166   1.191  0.00  0.00    +0.055 A 
ATOM      6  C   LIG    1       -4.108  -1.315   2.400  0.00  0.00    +0.020 A 
ATOM      7  C   LIG    1       -5.401  -1.796   2.359  0.00  0.00    +0.068 A 
ATOM      8  C   LIG    1       -5.968  -2.116   1.129  0.00  0.00    +0.215 A 
ATOM      9  N   LIG    1       -5.286  -1.964   0.004  0.00  0.00    -0.221 NA
ATOM     10  C   LIG    1       -4.053  -1.503  -0.003  0.00  0.00    +0.127 A 
BRANCH   8  11
ATOM     11  O   LIG    1       -7.237  -2.589   1.083  0.00  0.00    -0.467 OA
BRANCH  11  12
ATOM     12  C   LIG    1       -7.766  -2.900  -0.208  0.00  0.00    +0.343 C 
BRANCH  12  13
ATOM     13  C   LIG    1       -9.199  -3.417  -0.061  0.00  0.00    +0.424 C 
ATOM     14  F   LIG    1       -9.200  -4.568   0.734  0.00  0.00    -0.167 F 
ATOM     15  F   LIG    1       -9.989  -2.433   0.542  0.00  0.00    -0.167 F 
ATOM     16  F   LIG    1       -9.717  -3.721  -1.324  0.00  0.00    -0.167 F 
ENDBRANCH  12  13
ENDBRANCH  11  12
ENDBRANCH   8  11
ENDBRANCH   2   5
BRANCH   1  17
ATOM     17  C   LIG    1        0.002  -0.004   0.002  0.00  0.00    +0.091 C 
ATOM     18  C   LIG    1       -0.019   1.526   0.010  0.00  0.00    +0.030 C 
BRANCH  17  19
ATOM     19  C   LIG    1        0.718  -0.497  -1.257  0.00  0.00    +0.165 C 
BRANCH  19  20
ATOM     20  N   LIG    1        0.844  -1.956  -1.207  0.00  0.00    -0.270 N 
ATOM     21  N   LIG    1        1.429  -2.698  -0.173  0.00  0.00    -0.180 NA
ATOM     22  C   LIG    1        1.350  -3.967  -0.485  0.00  0.00    +0.134 A 
ATOM     23  C   LIG    1        0.722  -4.072  -1.730  0.00  0.00    +0.041 A 
ATOM     24  C   LIG    1        0.421  -2.822  -2.152  0.00  0.00    +0.108 A 
ENDBRANCH  19  20
ENDBRANCH  17  19
ENDBRANCH   1  17
TORSDOF 7
