REMARK  Name = ZINC000095992500
REMARK                            x       y       z     vdW  Elec       q    Type
REMARK                         _______ _______ _______ _____ _____    ______ ____
ROOT
ATOM      1  N   LIG    1       -1.398   3.337   0.880  0.00  0.00    -0.286 NA
ATOM      2  C   LIG    1       -1.389   3.707   2.302  0.00  0.00    +0.100 C 
ATOM      3  C   LIG    1       -0.967   5.172   2.442  0.00  0.00    +0.100 C 
ATOM      4  N   LIG    1       -1.898   6.021   1.685  0.00  0.00    -0.295 NA
ATOM      5  C   LIG    1       -1.907   5.650   0.263  0.00  0.00    +0.100 C 
ATOM      6  C   LIG    1       -2.329   4.186   0.123  0.00  0.00    +0.100 C 
ENDROOT
BRANCH   4   7
ATOM      7  C   LIG    1       -1.571   7.443   1.856  0.00  0.00    +0.145 C 
BRANCH   7   8
ATOM      8  C   LIG    1       -2.061   7.918   3.225  0.00  0.00    +0.264 C 
ATOM      9  O   LIG    1       -1.325   7.260   4.270  0.00  0.00    -0.348 OA
ATOM     10  C   LIG    1       -2.243   7.031   5.354  0.00  0.00    +0.191 C 
ATOM     11  C   LIG    1       -3.601   7.569   4.852  0.00  0.00    +0.191 C 
ATOM     12  O   LIG    1       -3.444   7.548   3.412  0.00  0.00    -0.348 OA
ENDBRANCH   7   8
ENDBRANCH   4   7
BRANCH   1  13
ATOM     13  C   LIG    1       -1.725   1.915   0.709  0.00  0.00    +0.192 C 
BRANCH  13  14
ATOM     14  C   LIG    1       -0.875   1.088   1.639  0.00  0.00    -0.022 A 
ATOM     15  C   LIG    1       -1.424   0.004   2.298  0.00  0.00    +0.005 A 
ATOM     16  C   LIG    1       -0.643  -0.756   3.148  0.00  0.00    +0.000 A 
ATOM     17  C   LIG    1        0.684  -0.428   3.346  0.00  0.00    +0.000 A 
ATOM     18  C   LIG    1        1.232   0.660   2.692  0.00  0.00    +0.000 A 
ATOM     19  C   LIG    1        0.453   1.418   1.839  0.00  0.00    +0.005 A 
ENDBRANCH  13  14
BRANCH  13  20
ATOM     20  C   LIG    1       -1.451   1.498  -0.737  0.00  0.00    +0.409 C 
ATOM     21  F   LIG    1       -1.629   0.117  -0.867  0.00  0.00    -0.169 F 
ATOM     22  F   LIG    1       -0.136   1.833  -1.077  0.00  0.00    -0.169 F 
ATOM     23  F   LIG    1       -2.337   2.165  -1.590  0.00  0.00    -0.169 F 
ENDBRANCH  13  20
ENDBRANCH   1  13
TORSDOF 5
