REMARK  Name = ZINC000095991188
REMARK                            x       y       z     vdW  Elec       q    Type
REMARK                         _______ _______ _______ _____ _____    ______ ____
ROOT
ATOM      1  N   LIG    1        2.806  -1.727  -4.950  0.00  0.00    -0.281 N 
ATOM      2  H   LIG    1        3.718  -2.055  -4.923  0.00  0.00    +0.155 HD
ATOM      3  C   LIG    1        2.197  -1.526  -6.135  0.00  0.00    +0.252 C 
ATOM      4  O   LIG    1        1.083  -1.040  -6.172  0.00  0.00    -0.270 OA
ENDROOT
BRANCH   1   5
ATOM      5  C   LIG    1        2.122  -1.464  -3.759  0.00  0.00    +0.036 A 
ATOM      6  C   LIG    1        2.331  -2.265  -2.644  0.00  0.00    +0.024 A 
ATOM      7  C   LIG    1        1.654  -2.004  -1.469  0.00  0.00    +0.022 A 
ATOM      8  C   LIG    1        0.768  -0.945  -1.400  0.00  0.00    +0.074 A 
ATOM      9  C   LIG    1        0.552  -0.146  -2.511  0.00  0.00    +0.141 A 
ATOM     10  F   LIG    1       -0.315   0.887  -2.442  0.00  0.00    -0.204 F 
ATOM     11  C   LIG    1        1.231  -0.401  -3.689  0.00  0.00    +0.062 A 
BRANCH   8  12
ATOM     12  S   LIG    1       -0.093  -0.615   0.101  0.00  0.00    +0.053 S 
ATOM     13  C   LIG    1        0.940   0.648   0.895  0.00  0.00    +0.127 C 
ATOM     14  O   LIG    1        0.025  -1.839   0.813  0.00  0.00    -0.252 OA
ENDBRANCH   8  12
ENDBRANCH   1   5
BRANCH   3  15
ATOM     15  C   LIG    1        2.882  -1.897  -7.389  0.00  0.00    +0.081 A 
ATOM     16  C   LIG    1        4.251  -1.654  -7.551  0.00  0.00    +0.018 A 
ATOM     17  C   LIG    1        4.846  -2.021  -8.745  0.00  0.00    +0.021 A 
ATOM     18  C   LIG    1        4.080  -2.610  -9.735  0.00  0.00    +0.113 A 
ATOM     19  N   LIG    1        2.791  -2.829  -9.561  0.00  0.00    -0.236 NA
ATOM     20  C   LIG    1        2.174  -2.503  -8.438  0.00  0.00    +0.166 A 
BRANCH  20  21
ATOM     21  N   LIG    1        0.811  -2.754  -8.298  0.00  0.00    -0.221 N 
ATOM     22  N   LIG    1        0.132  -2.984  -7.095  0.00  0.00    -0.173 NA
ATOM     23  C   LIG    1       -1.133  -3.176  -7.367  0.00  0.00    +0.135 A 
ATOM     24  C   LIG    1       -1.304  -3.085  -8.754  0.00  0.00    +0.041 A 
ATOM     25  C   LIG    1       -0.098  -2.825  -9.307  0.00  0.00    +0.116 A 
ENDBRANCH  20  21
ENDBRANCH   3  15
TORSDOF 4
