REMARK  Name = ZINC000082135167
REMARK                            x       y       z     vdW  Elec       q    Type
REMARK                         _______ _______ _______ _____ _____    ______ ____
ROOT
ATOM      1  C   LIG    1        0.549  -5.277  -2.838  0.00  0.00    +0.265 C 
ATOM      2  N   LIG    1        0.883  -6.493  -2.361  0.00  0.00    -0.294 N 
ATOM      3  C   LIG    1        1.251  -6.675  -0.949  0.00  0.00    +0.123 C 
ATOM      4  C   LIG    1        0.415  -7.822  -0.372  0.00  0.00    +0.104 C 
ATOM      5  N   LIG    1        0.578  -9.014  -1.214  0.00  0.00    -0.294 NA
ATOM      6  C   LIG    1        0.068  -8.781  -2.572  0.00  0.00    +0.104 C 
ATOM      7  C   LIG    1        0.884  -7.674  -3.238  0.00  0.00    +0.123 C 
ATOM      8  O   LIG    1        0.132  -5.164  -3.975  0.00  0.00    -0.268 OA
ENDROOT
BRANCH   1   9
ATOM      9  C   LIG    1        0.688  -4.088  -1.983  0.00  0.00    +0.123 A 
ATOM     10  C   LIG    1        1.445  -3.978  -0.830  0.00  0.00    +0.057 A 
ATOM     11  C   LIG    1        1.252  -2.668  -0.384  0.00  0.00    +0.064 A 
ATOM     12  N   LIG    1        0.450  -2.071  -1.228  0.00  0.00    -0.176 NA
ATOM     13  N   LIG    1        0.101  -2.869  -2.173  0.00  0.00    -0.262 N 
ATOM     14  C   LIG    1       -0.789  -2.524  -3.284  0.00  0.00    +0.173 C 
BRANCH  11  15
ATOM     15  C   LIG    1        1.864  -2.050   0.847  0.00  0.00    +0.057 C 
BRANCH  15  16
ATOM     16  C   LIG    1        2.613  -0.774   0.458  0.00  0.00    +0.003 C 
ATOM     17  C   LIG    1        3.235  -0.147   1.708  0.00  0.00    +0.004 C 
ENDBRANCH  15  16
ENDBRANCH  11  15
ENDBRANCH   1   9
BRANCH   5  18
ATOM     18  C   LIG    1       -0.069 -10.183  -0.603  0.00  0.00    +0.140 C 
BRANCH  18  19
ATOM     19  C   LIG    1        0.323 -11.426  -1.360  0.00  0.00    +0.063 A 
ATOM     20  C   LIG    1        1.335 -12.214  -0.983  0.00  0.00    +0.071 A 
ATOM     21  S   LIG    1        1.446 -13.542  -2.134  0.00  0.00    -0.080 S 
ATOM     22  C   LIG    1        0.121 -12.907  -3.009  0.00  0.00    +0.076 A 
ATOM     23  C   LIG    1       -0.464 -13.521  -4.254  0.00  0.00    +0.073 C 
ATOM     24  N   LIG    1       -0.308 -11.829  -2.444  0.00  0.00    -0.248 NA
ENDBRANCH  18  19
ENDBRANCH   5  18
TORSDOF 5
