REMARK  Name = ZINC000009651560
REMARK                            x       y       z     vdW  Elec       q    Type
REMARK                         _______ _______ _______ _____ _____    ______ ____
ROOT
ATOM      1  N   LIG    1        0.058  -4.168  -0.021  0.00  0.00    -0.268 N 
ATOM      2  C   LIG    1        0.070  -5.027   1.169  0.00  0.00    +0.135 A 
ATOM      3  C   LIG    1        0.088  -6.460   0.611  0.00  0.00    +0.146 A 
ATOM      4  N   LIG    1        0.086  -6.295  -0.849  0.00  0.00    -0.289 N 
ATOM      5  C   LIG    1        0.095  -7.008  -2.017  0.00  0.00    +0.193 A 
ATOM      6  N   LIG    1        0.084  -6.155  -3.011  0.00  0.00    -0.121 NA
ATOM      7  N   LIG    1        0.067  -4.864  -2.471  0.00  0.00    -0.112 NA
ATOM      8  C   LIG    1        0.063  -4.969  -1.157  0.00  0.00    +0.225 A 
ENDROOT
BRANCH   1   9
ATOM      9  C   LIG    1        0.039  -2.771  -0.013  0.00  0.00    +0.037 A 
ATOM     10  C   LIG    1        0.036  -2.081   1.193  0.00  0.00    +0.024 A 
ATOM     11  C   LIG    1        0.023  -0.700   1.197  0.00  0.00    +0.005 A 
ATOM     12  C   LIG    1        0.002  -0.004   0.002  0.00  0.00    -0.050 A 
ATOM     13  C   LIG    1       -0.018   1.503   0.010  0.00  0.00    +0.044 C 
ATOM     14  C   LIG    1        0.006  -0.687  -1.200  0.00  0.00    +0.005 A 
ATOM     15  C   LIG    1        0.024  -2.068  -1.212  0.00  0.00    +0.024 A 
ENDBRANCH   1   9
BRANCH   5  16
ATOM     16  S   LIG    1        0.118  -8.764  -2.159  0.00  0.00    -0.077 S 
BRANCH  16  17
ATOM     17  C   LIG    1        0.122  -9.029  -3.954  0.00  0.00    +0.173 C 
BRANCH  17  18
ATOM     18  C   LIG    1        0.141 -10.508  -4.244  0.00  0.00    +0.226 C 
ATOM     19  O   LIG    1        0.151 -11.305  -3.330  0.00  0.00    -0.275 OA
ATOM     20  N   LIG    1        0.147 -10.944  -5.519  0.00  0.00    -0.301 N 
ATOM     21  C   LIG    1        0.165 -12.356  -5.944  0.00  0.00    +0.108 C 
ATOM     22  C   LIG    1       -0.449 -12.347  -7.368  0.00  0.00    +0.020 C 
ATOM     23  C   LIG    1        0.126 -11.026  -7.944  0.00  0.00    +0.020 C 
ATOM     24  C   LIG    1        0.143 -10.091  -6.717  0.00  0.00    +0.108 C 
ENDBRANCH  17  18
ENDBRANCH  16  17
ENDBRANCH   5  16
TORSDOF 4
