REMARK  Name = ZINC000058192352
REMARK                            x       y       z     vdW  Elec       q    Type
REMARK                         _______ _______ _______ _____ _____    ______ ____
ROOT
ATOM      1  N   LIG    1       -1.194  -3.342  -0.017  0.00  0.00    -0.251 N 
ATOM      2  C   LIG    1       -2.541  -3.352  -0.007  0.00  0.00    +0.308 C 
ATOM      3  O   LIG    1       -3.156  -2.308   0.098  0.00  0.00    -0.252 OA
ATOM      4  N   LIG    1       -3.207  -4.519  -0.113  0.00  0.00    -0.282 N 
ATOM      5  C   LIG    1       -2.481  -5.796  -0.119  0.00  0.00    +0.128 C 
ATOM      6  C   LIG    1       -3.046  -6.687   0.995  0.00  0.00    +0.127 C 
ATOM      7  N   LIG    1       -4.512  -6.704   0.884  0.00  0.00    -0.298 N 
ATOM      8  C   LIG    1       -5.238  -5.426   0.890  0.00  0.00    +0.127 C 
ATOM      9  C   LIG    1       -5.178  -7.871   0.779  0.00  0.00    +0.216 C 
ATOM     10  O   LIG    1       -4.568  -8.919   0.775  0.00  0.00    -0.276 OA
ATOM     11  C   LIG    1       -4.673  -4.536  -0.218  0.00  0.00    +0.128 C 
ATOM     12  H   LIG    1       -0.702  -4.178  -0.026  0.00  0.00    +0.158 HD
ENDROOT
BRANCH   1  13
ATOM     13  C   LIG    1       -0.505  -2.128  -0.014  0.00  0.00    +0.169 A 
ATOM     14  C   LIG    1       -1.072  -0.826  -0.002  0.00  0.00    +0.091 A 
ATOM     15  C   LIG    1        0.001  -0.003  -0.006  0.00  0.00    +0.136 A 
ATOM     16  C   LIG    1       -0.020   1.504   0.003  0.00  0.00    +0.089 C 
ATOM     17  O   LIG    1        1.087  -0.789  -0.025  0.00  0.00    -0.358 OA
ATOM     18  N   LIG    1        0.791  -1.962  -0.024  0.00  0.00    -0.063 NA
ENDBRANCH   1  13
BRANCH   9  19
ATOM     19  C   LIG    1       -6.680  -7.873   0.666  0.00  0.00    +0.100 C 
BRANCH  19  20
ATOM     20  C   LIG    1       -7.182  -9.315   0.560  0.00  0.00    +0.044 C 
BRANCH  20  21
ATOM     21  C   LIG    1       -8.684  -9.318   0.447  0.00  0.00    -0.047 A 
ATOM     22  C   LIG    1       -9.463  -9.369   1.588  0.00  0.00    +0.003 A 
ATOM     23  C   LIG    1      -10.842  -9.371   1.484  0.00  0.00    +0.000 A 
ATOM     24  C   LIG    1      -11.441  -9.321   0.240  0.00  0.00    +0.000 A 
ATOM     25  C   LIG    1      -10.662  -9.269  -0.901  0.00  0.00    +0.000 A 
ATOM     26  C   LIG    1       -9.284  -9.262  -0.797  0.00  0.00    +0.003 A 
ENDBRANCH  20  21
ENDBRANCH  19  20
ENDBRANCH   9  19
TORSDOF 4
