REMARK  Name = ZINC000012972673
REMARK                            x       y       z     vdW  Elec       q    Type
REMARK                         _______ _______ _______ _____ _____    ______ ____
ROOT
ATOM      1  C   LIG    1       -3.291  -4.669  -0.016  0.00  0.00    +0.102 C 
ATOM      2  C   LIG    1       -3.009  -5.450   1.289  0.00  0.00    +0.110 C 
ATOM      3  C   LIG    1       -4.138  -5.050   2.212  0.00  0.00    +0.221 C 
ATOM      4  O   LIG    1       -4.144  -5.214   3.414  0.00  0.00    -0.275 OA
ATOM      5  N   LIG    1       -5.134  -4.486   1.507  0.00  0.00    -0.271 N 
ATOM      6  C   LIG    1       -4.817  -4.446   0.074  0.00  0.00    +0.127 C 
ENDROOT
BRANCH   5   7
ATOM      7  C   LIG    1       -6.321  -3.999   2.067  0.00  0.00    +0.037 A 
ATOM      8  C   LIG    1       -6.582  -4.188   3.417  0.00  0.00    +0.027 A 
ATOM      9  C   LIG    1       -7.752  -3.702   3.973  0.00  0.00    -0.042 A 
ATOM     10  C   LIG    1       -8.262  -3.770   5.396  0.00  0.00    +0.036 C 
ATOM     11  C   LIG    1       -9.773  -3.467   5.299  0.00  0.00    +0.009 C 
ATOM     12  C   LIG    1       -9.857  -2.614   4.016  0.00  0.00    +0.036 C 
ATOM     13  C   LIG    1       -8.669  -3.037   3.179  0.00  0.00    -0.044 A 
ATOM     14  C   LIG    1       -8.412  -2.854   1.830  0.00  0.00    +0.006 A 
ATOM     15  C   LIG    1       -7.243  -3.332   1.273  0.00  0.00    +0.024 A 
ENDBRANCH   5   7
BRANCH   1  16
ATOM     16  C   LIG    1       -2.553  -3.355  -0.029  0.00  0.00    +0.223 C 
ATOM     17  O   LIG    1       -3.172  -2.312  -0.029  0.00  0.00    -0.275 OA
ATOM     18  N   LIG    1       -1.206  -3.339  -0.040  0.00  0.00    -0.267 N 
ATOM     19  H   LIG    1       -0.711  -4.173  -0.040  0.00  0.00    +0.156 HD
BRANCH  18  20
ATOM     20  C   LIG    1       -0.523  -2.122  -0.052  0.00  0.00    +0.168 A 
ATOM     21  C   LIG    1       -1.096  -0.823  -0.054  0.00  0.00    +0.091 A 
ATOM     22  C   LIG    1       -0.027   0.005  -0.067  0.00  0.00    +0.136 A 
ATOM     23  C   LIG    1       -0.055   1.512  -0.075  0.00  0.00    +0.089 C 
ATOM     24  O   LIG    1        1.063  -0.776  -0.079  0.00  0.00    -0.358 OA
ATOM     25  N   LIG    1        0.773  -1.950  -0.064  0.00  0.00    -0.063 NA
ENDBRANCH  18  20
ENDBRANCH   1  16
TORSDOF 3
