REMARK  Name = ZINC000058193325
REMARK                            x       y       z     vdW  Elec       q    Type
REMARK                         _______ _______ _______ _____ _____    ______ ____
ROOT
ATOM      1  C   LIG    1        4.350   0.211  -0.277  0.00  0.00    +0.219 C 
ENDROOT
BRANCH   1   2
ATOM      2  N   LIG    1        5.059  -0.274   0.910  0.00  0.00    -0.318 N 
ATOM      3  C   LIG    1        5.122   0.353   2.139  0.00  0.00    +0.069 A 
ATOM      4  C   LIG    1        5.905  -0.478   2.958  0.00  0.00    +0.089 A 
ATOM      5  C   LIG    1        6.153  -0.103   4.281  0.00  0.00    +0.030 A 
ATOM      6  C   LIG    1        5.633   1.064   4.766  0.00  0.00    +0.002 A 
ATOM      7  C   LIG    1        4.859   1.884   3.958  0.00  0.00    +0.002 A 
ATOM      8  N   LIG    1        6.272  -1.545   2.203  0.00  0.00    -0.231 NA
ATOM      9  C   LIG    1        4.602   1.534   2.649  0.00  0.00    +0.028 A 
ATOM     10  C   LIG    1        5.771  -1.428   1.008  0.00  0.00    +0.121 A 
BRANCH  10  11
ATOM     11  C   LIG    1        5.963  -2.422  -0.109  0.00  0.00    +0.143 C 
BRANCH  11  12
ATOM     12  S   LIG    1        4.638  -3.659  -0.052  0.00  0.00    -0.156 S 
ATOM     13  C   LIG    1        5.034  -4.747  -1.448  0.00  0.00    +0.084 C 
ENDBRANCH  11  12
ENDBRANCH  10  11
ENDBRANCH   1   2
BRANCH   1  14
ATOM     14  C   LIG    1        2.936  -0.310  -0.266  0.00  0.00    +0.234 C 
ATOM     15  O   LIG    1        2.558  -1.018   0.643  0.00  0.00    -0.274 OA
ATOM     16  N   LIG    1        2.093   0.010  -1.267  0.00  0.00    -0.299 N 
ATOM     17  H   LIG    1        2.395   0.575  -1.995  0.00  0.00    +0.150 HD
BRANCH  16  18
ATOM     18  C   LIG    1        0.718  -0.497  -1.257  0.00  0.00    +0.129 C 
ATOM     19  C   LIG    1        0.739  -2.027  -1.265  0.00  0.00    +0.043 C 
BRANCH  18  20
ATOM     20  C   LIG    1        0.002  -0.004   0.002  0.00  0.00    +0.033 C 
ATOM     21  C   LIG    1       -0.019   1.526   0.010  0.00  0.00    +0.006 C 
ENDBRANCH  18  20
BRANCH  18  22
ATOM     22  C   LIG    1       -0.011   0.002  -2.478  0.00  0.00    +0.330 C 
ATOM     23  O   LIG    1       -0.832  -0.699  -3.020  0.00  0.00    -0.248 OA
BRANCH  22  24
ATOM     24  O   LIG    1        0.253   1.225  -2.963  0.00  0.00    -0.466 OA
ATOM     25  C   LIG    1       -0.487   1.640  -4.142  0.00  0.00    +0.280 C 
ENDBRANCH  22  24
ENDBRANCH  18  22
ENDBRANCH  16  18
ENDBRANCH   1  14
TORSDOF 8
