REMARK  Name = ZINC000001072089
REMARK                            x       y       z     vdW  Elec       q    Type
REMARK                         _______ _______ _______ _____ _____    ______ ____
ROOT
ATOM      1  N   LIG    1        0.059  -4.170  -0.022  0.00  0.00    -0.271 N 
ATOM      2  C   LIG    1        0.176  -5.005   1.180  0.00  0.00    +0.127 C 
ATOM      3  C   LIG    1       -0.279  -6.416   0.748  0.00  0.00    +0.101 C 
ATOM      4  C   LIG    1        0.016  -6.392  -0.770  0.00  0.00    +0.110 C 
ATOM      5  C   LIG    1       -0.033  -4.923  -1.132  0.00  0.00    +0.221 C 
ATOM      6  O   LIG    1       -0.132  -4.489  -2.260  0.00  0.00    -0.275 OA
ENDROOT
BRANCH   1   7
ATOM      7  C   LIG    1        0.040  -2.772  -0.013  0.00  0.00    +0.038 A 
ATOM      8  C   LIG    1        0.022  -2.083   1.193  0.00  0.00    +0.043 A 
ATOM      9  C   LIG    1        0.009  -0.701   1.198  0.00  0.00    +0.046 A 
ATOM     10 CL   LIG    1       -0.013   0.160   2.705  0.00  0.00    -0.083 Cl
ATOM     11  C   LIG    1        0.002  -0.004   0.002  0.00  0.00    -0.032 A 
ATOM     12  C   LIG    1       -0.018   1.503   0.010  0.00  0.00    +0.045 C 
ATOM     13  C   LIG    1        0.020  -0.687  -1.200  0.00  0.00    +0.006 A 
ATOM     14  C   LIG    1        0.039  -2.068  -1.211  0.00  0.00    +0.024 A 
ENDBRANCH   1   7
BRANCH   3  15
ATOM     15  C   LIG    1       -1.750  -6.613   1.009  0.00  0.00    +0.218 C 
ATOM     16  O   LIG    1       -2.404  -5.716   1.499  0.00  0.00    -0.275 OA
ATOM     17  N   LIG    1       -2.339  -7.785   0.699  0.00  0.00    -0.313 N 
ATOM     18  H   LIG    1       -1.816  -8.502   0.307  0.00  0.00    +0.149 HD
BRANCH  17  19
ATOM     19  C   LIG    1       -3.769  -7.975   0.953  0.00  0.00    +0.135 C 
BRANCH  19  20
ATOM     20  C   LIG    1       -4.182  -9.382   0.514  0.00  0.00    +0.135 C 
ATOM     21  C   LIG    1       -5.700  -9.592   0.742  0.00  0.00    +0.035 C 
ATOM     22  C   LIG    1       -6.003 -10.703  -0.300  0.00  0.00    +0.031 C 
ATOM     23  C   LIG    1       -5.038 -10.346  -1.450  0.00  0.00    +0.160 C 
ATOM     24  O   LIG    1       -3.988  -9.539  -0.901  0.00  0.00    -0.375 OA
ENDBRANCH  19  20
ENDBRANCH  17  19
ENDBRANCH   3  15
TORSDOF 4
