REMARK  Name = ZINC000348327906
REMARK                            x       y       z     vdW  Elec       q    Type
REMARK                         _______ _______ _______ _____ _____    ______ ____
ROOT
ATOM      1  C   LIG    1       -1.411  -1.020   1.720  0.00  0.00    +0.248 C 
ENDROOT
BRANCH   1   2
ATOM      2  C   LIG    1        0.024  -0.743   1.267  0.00  0.00    +0.145 C 
BRANCH   2   3
ATOM      3  N   LIG    1        0.002  -0.004   0.002  0.00  0.00    -0.330 N 
ATOM      4  C   LIG    1       -0.018   1.461   0.010  0.00  0.00    +0.129 C 
BRANCH   3   5
ATOM      5  C   LIG    1        0.000  -0.697  -1.212  0.00  0.00    +0.032 A 
ATOM      6  C   LIG    1        0.013  -2.091  -1.214  0.00  0.00    +0.024 A 
ATOM      7  C   LIG    1        0.011  -2.781  -2.392  0.00  0.00    +0.012 A 
ATOM      8  C   LIG    1       -0.004  -2.089  -3.604  0.00  0.00    -0.000 A 
ATOM      9  C   LIG    1       -0.017  -0.682  -3.612  0.00  0.00    +0.048 A 
ATOM     10  N   LIG    1       -0.030  -0.283  -4.930  0.00  0.00    -0.361 N 
ATOM     11  H   LIG    1       -0.041   0.639  -5.233  0.00  0.00    +0.165 HD
ATOM     12  C   LIG    1       -0.026  -1.381  -5.749  0.00  0.00    +0.083 A 
ATOM     13  C   LIG    1       -0.010  -2.502  -5.011  0.00  0.00    +0.027 A 
ATOM     14  C   LIG    1       -0.021   0.007  -2.404  0.00  0.00    +0.049 A 
ENDBRANCH   3   5
ENDBRANCH   2   3
ENDBRANCH   1   2
BRANCH   1  15
ATOM     15  O   LIG    1       -2.046  -1.892   0.784  0.00  0.00    -0.490 OA
BRANCH  15  16
ATOM     16  C   LIG    1       -3.335  -2.240   1.041  0.00  0.00    +0.121 A 
ATOM     17  C   LIG    1       -3.976  -1.747   2.169  0.00  0.00    +0.047 A 
ATOM     18  C   LIG    1       -5.285  -2.102   2.428  0.00  0.00    +0.032 A 
ATOM     19  C   LIG    1       -5.957  -2.947   1.565  0.00  0.00    +0.105 A 
ATOM     20  C   LIG    1       -5.321  -3.439   0.440  0.00  0.00    +0.032 A 
ATOM     21  C   LIG    1       -4.013  -3.084   0.174  0.00  0.00    +0.047 A 
BRANCH  19  22
ATOM     22  S   LIG    1       -7.628  -3.398   1.898  0.00  0.00    +0.056 S 
ATOM     23  O   LIG    1       -7.816  -3.233   3.297  0.00  0.00    -0.153 OA
ATOM     24  O   LIG    1       -7.854  -4.628   1.224  0.00  0.00    -0.153 OA
BRANCH  22  25
ATOM     25  N   LIG    1       -8.595  -2.276   1.160  0.00  0.00    -0.204 NA
ATOM     26  H   LIG    1       -9.560  -2.348   1.226  0.00  0.00    +0.144 HD
ATOM     27  H   LIG    1       -8.197  -1.545   0.661  0.00  0.00    +0.144 HD
ENDBRANCH  22  25
ENDBRANCH  19  22
ENDBRANCH  15  16
ENDBRANCH   1  15
TORSDOF 7
