REMARK  Name = ZINC000058179477
REMARK                            x       y       z     vdW  Elec       q    Type
REMARK                         _______ _______ _______ _____ _____    ______ ____
ROOT
ATOM      1  C   LIG    1        1.277   1.961   0.164  0.00  0.00    +0.180 C 
ENDROOT
BRANCH   1   2
ATOM      2  N   LIG    1        2.390   1.020   0.351  0.00  0.00    -0.292 NA
ATOM      3  C   LIG    1        2.351   0.438   1.639  0.00  0.00    +0.104 C 
ATOM      4  C   LIG    1        3.676  -0.313   1.921  0.00  0.00    +0.122 C 
ATOM      5  N   LIG    1        3.753  -1.494   1.085  0.00  0.00    -0.308 N 
ATOM      6  C   LIG    1        4.356  -1.474  -0.262  0.00  0.00    +0.108 C 
ATOM      7  C   LIG    1        3.945  -0.213  -1.040  0.00  0.00    +0.034 C 
ATOM      8  C   LIG    1        2.487   0.094  -0.776  0.00  0.00    +0.086 C 
BRANCH   5   9
ATOM      9  C   LIG    1        3.242  -2.688   1.570  0.00  0.00    +0.161 A 
ATOM     10  N   LIG    1        2.683  -2.840   2.730  0.00  0.00    -0.233 NA
ATOM     11  C   LIG    1        2.250  -4.052   3.030  0.00  0.00    +0.120 A 
ATOM     12  C   LIG    1        2.453  -4.964   2.079  0.00  0.00    +0.068 A 
ATOM     13  S   LIG    1        3.250  -4.172   0.722  0.00  0.00    -0.061 S 
ENDBRANCH   5   9
ENDBRANCH   1   2
BRANCH   1  14
ATOM     14  C   LIG    1       -0.027   1.206   0.178  0.00  0.00    +0.231 C 
ATOM     15  O   LIG    1       -0.029   0.002   0.328  0.00  0.00    -0.274 OA
ATOM     16  N   LIG    1       -1.191   1.867   0.018  0.00  0.00    -0.284 N 
ATOM     17  H   LIG    1       -1.196   2.836  -0.025  0.00  0.00    +0.155 HD
BRANCH  16  18
ATOM     18  C   LIG    1       -2.391   1.155  -0.086  0.00  0.00    +0.036 A 
ATOM     19  C   LIG    1       -3.566   1.696   0.418  0.00  0.00    +0.023 A 
ATOM     20  C   LIG    1       -4.750   0.993   0.315  0.00  0.00    +0.005 A 
ATOM     21  C   LIG    1       -4.768  -0.250  -0.289  0.00  0.00    +0.038 A 
ATOM     22  C   LIG    1       -3.597  -0.794  -0.793  0.00  0.00    +0.125 A 
ATOM     23  F   LIG    1       -3.617  -2.009  -1.383  0.00  0.00    -0.205 F 
ATOM     24  C   LIG    1       -2.410  -0.091  -0.699  0.00  0.00    +0.061 A 
ENDBRANCH  16  18
ENDBRANCH   1  14
TORSDOF 4
