REMARK  Name = ZINC000009616243
REMARK                            x       y       z     vdW  Elec       q    Type
REMARK                         _______ _______ _______ _____ _____    ______ ____
ROOT
ATOM      1  O   LIG    1        0.002  -0.004   0.002  0.00  0.00    -0.253 OA
ATOM      2  C   LIG    1       -0.014   1.212   0.009  0.00  0.00    +0.300 C 
ATOM      3  N   LIG    1       -1.191   1.870   0.018  0.00  0.00    -0.295 N 
ATOM      4  H   LIG    1       -1.204   2.840   0.023  0.00  0.00    +0.151 HD
ATOM      5  N   LIG    1        1.143   1.901   0.001  0.00  0.00    -0.292 N 
ATOM      6  H   LIG    1        1.130   2.871   0.007  0.00  0.00    +0.151 HD
ENDROOT
BRANCH   3   7
ATOM      7  C   LIG    1       -2.449   1.120   0.020  0.00  0.00    +0.141 C 
BRANCH   7   8
ATOM      8  C   LIG    1       -3.608   2.084   0.030  0.00  0.00    -0.030 A 
ATOM      9  C   LIG    1       -4.130   2.523   1.232  0.00  0.00    +0.005 A 
ATOM     10  C   LIG    1       -5.193   3.407   1.242  0.00  0.00    +0.000 A 
ATOM     11  C   LIG    1       -5.733   3.852   0.050  0.00  0.00    +0.000 A 
ATOM     12  C   LIG    1       -5.210   3.413  -1.152  0.00  0.00    +0.000 A 
ATOM     13  C   LIG    1       -4.145   2.532  -1.162  0.00  0.00    +0.005 A 
ENDBRANCH   7   8
ENDBRANCH   3   7
BRANCH   5  14
ATOM     14  C   LIG    1        2.422   1.186  -0.015  0.00  0.00    +0.184 C 
BRANCH  14  15
ATOM     15  C   LIG    1        3.554   2.181  -0.020  0.00  0.00    +0.174 A 
ATOM     16  N   LIG    1        4.166   2.704   1.065  0.00  0.00    -0.196 N 
ATOM     17  N   LIG    1        5.147   3.571   0.553  0.00  0.00    -0.039 NA
ATOM     18  N   LIG    1        5.055   3.516  -0.732  0.00  0.00    -0.023 NA
ATOM     19  N   LIG    1        4.122   2.703  -1.076  0.00  0.00    -0.111 NA
BRANCH  16  20
ATOM     20  C   LIG    1        3.887   2.433   2.413  0.00  0.00    +0.069 A 
ATOM     21  C   LIG    1        4.918   2.399   3.342  0.00  0.00    +0.029 A 
ATOM     22  C   LIG    1        4.640   2.139   4.670  0.00  0.00    +0.022 A 
ATOM     23  C   LIG    1        3.338   1.901   5.072  0.00  0.00    +0.041 A 
ATOM     24 CL   LIG    1        2.993   1.567   6.740  0.00  0.00    -0.084 Cl
ATOM     25  C   LIG    1        2.309   1.929   4.146  0.00  0.00    +0.022 A 
ATOM     26  C   LIG    1        2.581   2.195   2.818  0.00  0.00    +0.029 A 
ENDBRANCH  16  20
ENDBRANCH  14  15
ENDBRANCH   5  14
TORSDOF 5
