REMARK  Name = ZINC000025867468
REMARK                            x       y       z     vdW  Elec       q    Type
REMARK                         _______ _______ _______ _____ _____    ______ ____
ROOT
ATOM      1  N   LIG    1       -1.003  -6.700  -0.904  0.00  0.00    -0.308 N 
ATOM      2  H   LIG    1       -0.172  -6.235  -1.092  0.00  0.00    +0.149 HD
ATOM      3  C   LIG    1       -1.246  -7.900  -1.468  0.00  0.00    +0.218 C 
ATOM      4  O   LIG    1       -2.284  -8.481  -1.233  0.00  0.00    -0.275 OA
ENDROOT
BRANCH   3   5
ATOM      5  C   LIG    1       -0.227  -8.519  -2.390  0.00  0.00    +0.092 C 
ATOM      6  C   LIG    1       -0.746  -9.869  -2.891  0.00  0.00    +0.016 C 
ATOM      7  C   LIG    1        0.302 -10.514  -3.801  0.00  0.00    +0.020 C 
ATOM      8  C   LIG    1        0.545  -9.609  -5.013  0.00  0.00    +0.109 C 
ATOM      9  N   LIG    1        0.905  -8.267  -4.537  0.00  0.00    -0.285 N 
ATOM     10  C   LIG    1        2.032  -7.665  -4.964  0.00  0.00    +0.300 C 
ATOM     11  O   LIG    1        2.273  -6.520  -4.635  0.00  0.00    -0.253 OA
ATOM     12  N   LIG    1        2.894  -8.334  -5.756  0.00  0.00    -0.313 N 
ATOM     13  H   LIG    1        3.740  -7.928  -6.004  0.00  0.00    +0.146 HD
ATOM     14  H   LIG    1        2.668  -9.220  -6.079  0.00  0.00    +0.146 HD
ATOM     15  C   LIG    1        0.011  -7.592  -3.586  0.00  0.00    +0.122 C 
ENDBRANCH   3   5
BRANCH   1  16
ATOM     16  C   LIG    1       -1.993  -6.098  -0.008  0.00  0.00    +0.100 C 
ATOM     17  C   LIG    1       -1.795  -6.639   1.409  0.00  0.00    +0.033 C 
BRANCH  16  18
ATOM     18  C   LIG    1       -1.820  -4.601  -0.002  0.00  0.00    -0.024 A 
ATOM     19  C   LIG    1       -2.932  -3.778   0.008  0.00  0.00    +0.054 A 
ATOM     20  C   LIG    1       -2.775  -2.402   0.019  0.00  0.00    +0.162 A 
ATOM     21  C   LIG    1       -1.497  -1.850   0.008  0.00  0.00    +0.162 A 
ATOM     22  C   LIG    1       -0.388  -2.680  -0.002  0.00  0.00    +0.050 A 
ATOM     23  C   LIG    1       -0.551  -4.053  -0.007  0.00  0.00    +0.009 A 
BRANCH  20  24
ATOM     24  O   LIG    1       -3.867  -1.591   0.029  0.00  0.00    -0.491 OA
ATOM     25  C   LIG    1       -5.147  -2.227   0.029  0.00  0.00    +0.277 C 
ENDBRANCH  20  24
BRANCH  21  26
ATOM     26  O   LIG    1       -1.338  -0.499   0.014  0.00  0.00    -0.489 OA
BRANCH  26  27
ATOM     27  C   LIG    1        0.003  -0.004   0.002  0.00  0.00    +0.226 C 
ATOM     28  C   LIG    1       -0.019   1.526   0.010  0.00  0.00    +0.048 C 
ENDBRANCH  26  27
ENDBRANCH  21  26
ENDBRANCH  16  18
ENDBRANCH   1  16
TORSDOF 6
