REMARK  Name = ZINC000095988821
REMARK                            x       y       z     vdW  Elec       q    Type
REMARK                         _______ _______ _______ _____ _____    ______ ____
ROOT
ATOM      1  C   LIG    1       -0.149  -4.905  -1.871  0.00  0.00    +0.141 C 
ENDROOT
BRANCH   1   2
ATOM      2  C   LIG    1       -0.332  -5.678  -3.152  0.00  0.00    -0.031 A 
ATOM      3  C   LIG    1       -0.704  -7.006  -3.107  0.00  0.00    +0.016 A 
ATOM      4  C   LIG    1       -0.873  -7.720  -4.291  0.00  0.00    +0.021 A 
ATOM      5  C   LIG    1       -0.666  -7.088  -5.515  0.00  0.00    +0.011 A 
ATOM      6  C   LIG    1       -0.294  -5.759  -5.549  0.00  0.00    +0.001 A 
ATOM      7  C   LIG    1       -0.133  -5.054  -4.370  0.00  0.00    +0.005 A 
BRANCH   4   8
ATOM      8  C   LIG    1       -1.274  -9.149  -4.249  0.00  0.00    +0.181 A 
ATOM      9  N   LIG    1       -1.503  -9.849  -3.160  0.00  0.00    -0.152 NA
ATOM     10  N   LIG    1       -1.853 -11.143  -3.578  0.00  0.00    -0.262 N 
ATOM     11  H   LIG    1       -2.080 -11.895  -3.008  0.00  0.00    +0.190 HD
ATOM     12  C   LIG    1       -1.809 -11.136  -4.922  0.00  0.00    +0.122 A 
ATOM     13  C   LIG    1       -2.110 -12.307  -5.821  0.00  0.00    +0.087 C 
ATOM     14  N   LIG    1       -1.467  -9.937  -5.315  0.00  0.00    -0.212 NA
ENDBRANCH   4   8
ENDBRANCH   1   2
BRANCH   1  15
ATOM     15  N   LIG    1       -1.421  -4.288  -1.487  0.00  0.00    -0.186 NA
ATOM     16  H   LIG    1       -2.139  -4.214  -2.135  0.00  0.00    +0.148 HD
BRANCH  15  17
ATOM     17  S   LIG    1       -1.633  -3.718   0.053  0.00  0.00    +0.062 S 
ATOM     18  O   LIG    1       -1.234  -4.766   0.927  0.00  0.00    -0.153 OA
ATOM     19  O   LIG    1       -2.924  -3.126   0.088  0.00  0.00    -0.153 OA
BRANCH  17  20
ATOM     20  C   LIG    1       -0.478  -2.408   0.288  0.00  0.00    +0.146 A 
ATOM     21  C   LIG    1        0.608  -2.395   1.193  0.00  0.00    +0.073 A 
ATOM     22  C   LIG    1        1.224  -1.208   1.045  0.00  0.00    +0.104 A 
ATOM     23  C   LIG    1        2.439  -0.745   1.806  0.00  0.00    +0.086 C 
ATOM     24  O   LIG    1        0.569  -0.504   0.108  0.00  0.00    -0.463 OA
ATOM     25  C   LIG    1       -0.461  -1.229  -0.359  0.00  0.00    +0.128 A 
ATOM     26  C   LIG    1       -1.437  -0.793  -1.421  0.00  0.00    +0.088 C 
ENDBRANCH  17  20
ENDBRANCH  15  17
ENDBRANCH   1  15
TORSDOF 5
