REMARK  Name = ZINC000042368411
REMARK                            x       y       z     vdW  Elec       q    Type
REMARK                         _______ _______ _______ _____ _____    ______ ____
ROOT
ATOM      1  N   LIG    1        0.688  -0.476  -1.203  0.00  0.00    -0.307 N 
ATOM      2  C   LIG    1        2.031  -0.587  -1.215  0.00  0.00    +0.246 C 
ATOM      3  O   LIG    1        2.674  -0.294  -0.225  0.00  0.00    -0.270 OA
ATOM      4  H   LIG    1        0.175  -0.710  -1.993  0.00  0.00    +0.149 HD
ENDROOT
BRANCH   2   5
ATOM      5  C   LIG    1        2.722  -1.063  -2.429  0.00  0.00    +0.055 A 
ATOM      6  C   LIG    1        4.119  -1.187  -2.451  0.00  0.00    +0.020 A 
ATOM      7  C   LIG    1        4.719  -1.637  -3.610  0.00  0.00    +0.068 A 
ATOM      8  C   LIG    1        3.926  -1.949  -4.710  0.00  0.00    +0.215 A 
ATOM      9  N   LIG    1        2.609  -1.821  -4.658  0.00  0.00    -0.221 NA
ATOM     10  C   LIG    1        1.995  -1.402  -3.571  0.00  0.00    +0.127 A 
BRANCH   8  11
ATOM     11  O   LIG    1        4.509  -2.390  -5.850  0.00  0.00    -0.467 OA
BRANCH  11  12
ATOM     12  C   LIG    1        3.644  -2.695  -6.946  0.00  0.00    +0.343 C 
BRANCH  12  13
ATOM     13  C   LIG    1        4.478  -3.175  -8.136  0.00  0.00    +0.424 C 
ATOM     14  F   LIG    1        5.192  -4.321  -7.772  0.00  0.00    -0.167 F 
ATOM     15  F   LIG    1        5.373  -2.168  -8.514  0.00  0.00    -0.167 F 
ATOM     16  F   LIG    1        3.631  -3.473  -9.208  0.00  0.00    -0.167 F 
ENDBRANCH  12  13
ENDBRANCH  11  12
ENDBRANCH   8  11
ENDBRANCH   2   5
BRANCH   1  17
ATOM     17  C   LIG    1        0.002  -0.004   0.002  0.00  0.00    +0.091 C 
ATOM     18  C   LIG    1       -0.019   1.526   0.010  0.00  0.00    +0.030 C 
BRANCH  17  19
ATOM     19  C   LIG    1       -1.433  -0.534   0.013  0.00  0.00    +0.165 C 
BRANCH  19  20
ATOM     20  N   LIG    1       -1.414  -1.994   0.125  0.00  0.00    -0.270 N 
ATOM     21  C   LIG    1       -2.052  -2.727   1.062  0.00  0.00    +0.108 A 
ATOM     22  C   LIG    1       -1.783  -4.031   0.820  0.00  0.00    +0.041 A 
ATOM     23  C   LIG    1       -0.952  -4.097  -0.303  0.00  0.00    +0.134 A 
ATOM     24  N   LIG    1       -0.735  -2.877  -0.724  0.00  0.00    -0.180 NA
ENDBRANCH  19  20
ENDBRANCH  17  19
ENDBRANCH   1  17
TORSDOF 7
