REMARK  Name = ZINC000025835322
REMARK                            x       y       z     vdW  Elec       q    Type
REMARK                         _______ _______ _______ _____ _____    ______ ____
ROOT
ATOM      1  C   LIG    1        1.714  -6.073  -3.469  0.00  0.00    +0.046 A 
ATOM      2  C   LIG    1        1.035  -6.694  -2.430  0.00  0.00    +0.024 A 
ATOM      3  C   LIG    1        0.953  -8.071  -2.383  0.00  0.00    +0.002 A 
ATOM      4  C   LIG    1        1.546  -8.843  -3.369  0.00  0.00    +0.001 A 
ATOM      5  C   LIG    1        2.224  -8.243  -4.408  0.00  0.00    +0.015 A 
ATOM      6  C   LIG    1        2.311  -6.851  -4.472  0.00  0.00    +0.058 A 
ENDROOT
BRANCH   1   7
ATOM      7  N   LIG    1        1.798  -4.683  -3.518  0.00  0.00    -0.284 N 
ATOM      8  C   LIG    1        0.858  -3.929  -2.915  0.00  0.00    +0.231 C 
ATOM      9  O   LIG    1       -0.114  -4.457  -2.416  0.00  0.00    -0.274 OA
ATOM     10  H   LIG    1        2.534  -4.258  -3.986  0.00  0.00    +0.155 HD
BRANCH   8  11
ATOM     11  C   LIG    1        1.014  -2.432  -2.860  0.00  0.00    +0.181 C 
BRANCH  11  12
ATOM     12  N   LIG    1       -0.135  -1.845  -2.155  0.00  0.00    -0.289 NA
ATOM     13  C   LIG    1       -0.142  -2.241  -0.740  0.00  0.00    +0.113 C 
ATOM     14  C   LIG    1       -1.384  -1.659  -0.059  0.00  0.00    +0.175 C 
ATOM     15  O   LIG    1       -1.391  -0.238  -0.224  0.00  0.00    -0.374 OA
ATOM     16  C   LIG    1       -1.383   0.182  -1.591  0.00  0.00    +0.129 C 
ATOM     17  C   LIG    1       -1.355   1.711  -1.654  0.00  0.00    +0.039 C 
ATOM     18  C   LIG    1       -0.141  -0.381  -2.287  0.00  0.00    +0.116 C 
ENDBRANCH  11  12
ENDBRANCH   8  11
ENDBRANCH   1   7
BRANCH   6  19
ATOM     19  C   LIG    1        3.036  -6.203  -5.582  0.00  0.00    +0.246 C 
ATOM     20  O   LIG    1        3.187  -4.996  -5.586  0.00  0.00    -0.270 OA
ATOM     21  N   LIG    1        3.530  -6.948  -6.590  0.00  0.00    -0.308 N 
ATOM     22  H   LIG    1        3.410  -7.910  -6.586  0.00  0.00    +0.149 HD
BRANCH  21  23
ATOM     23  C   LIG    1        4.250  -6.304  -7.691  0.00  0.00    +0.073 C 
ATOM     24  C   LIG    1        5.747  -6.176  -7.341  0.00  0.00    +0.022 C 
ATOM     25  C   LIG    1        6.399  -7.417  -7.999  0.00  0.00    +0.002 C 
ATOM     26  C   LIG    1        5.617  -7.548  -9.330  0.00  0.00    +0.002 C 
ATOM     27  C   LIG    1        4.168  -7.177  -8.956  0.00  0.00    +0.022 C 
ENDBRANCH  21  23
ENDBRANCH   6  19
TORSDOF 5
