REMARK  Name = ZINC000095987225
REMARK                            x       y       z     vdW  Elec       q    Type
REMARK                         _______ _______ _______ _____ _____    ______ ____
ROOT
ATOM      1  C   LIG    1        1.656  -3.216  -0.024  0.00  0.00    +0.282 C 
ATOM      2  O   LIG    1        1.217  -4.345   0.099  0.00  0.00    -0.267 OA
ATOM      3  N   LIG    1        2.985  -3.018  -0.131  0.00  0.00    -0.293 N 
ATOM      4  C   LIG    1        3.548  -1.659  -0.122  0.00  0.00    +0.123 C 
ATOM      5  C   LIG    1        4.670  -1.605   0.920  0.00  0.00    +0.104 C 
ATOM      6  N   LIG    1        5.638  -2.677   0.650  0.00  0.00    -0.293 NA
ATOM      7  C   LIG    1        5.017  -4.001   0.787  0.00  0.00    +0.104 C 
ATOM      8  C   LIG    1        3.910  -4.154  -0.254  0.00  0.00    +0.123 C 
ENDROOT
BRANCH   6   9
ATOM      9  C   LIG    1        6.816  -2.554   1.519  0.00  0.00    +0.094 C 
ATOM     10  C   LIG    1        7.584  -1.249   1.221  0.00  0.00    +0.057 C 
ATOM     11  C   LIG    1        9.045  -1.598   1.409  0.00  0.00    -0.040 A 
ATOM     12  C   LIG    1       10.147  -0.779   1.585  0.00  0.00    +0.004 A 
ATOM     13  C   LIG    1       11.405  -1.330   1.739  0.00  0.00    +0.000 A 
ATOM     14  C   LIG    1       11.564  -2.702   1.717  0.00  0.00    +0.000 A 
ATOM     15  C   LIG    1       10.465  -3.521   1.541  0.00  0.00    +0.006 A 
ATOM     16  C   LIG    1        9.204  -2.971   1.387  0.00  0.00    -0.014 A 
ATOM     17  C   LIG    1        7.859  -3.642   1.186  0.00  0.00    +0.162 C 
BRANCH  17  18
ATOM     18  O   LIG    1        7.723  -4.755   2.071  0.00  0.00    -0.386 OA
ATOM     19  H   LIG    1        8.382  -5.449   1.935  0.00  0.00    +0.210 HD
ENDBRANCH  17  18
ENDBRANCH   6   9
BRANCH   1  20
ATOM     20  C   LIG    1        0.739  -2.072  -0.056  0.00  0.00    +0.190 A 
ATOM     21  C   LIG    1       -0.605  -2.114   0.183  0.00  0.00    +0.055 A 
ATOM     22  C   LIG    1       -1.080  -0.801   0.047  0.00  0.00    +0.045 A 
ATOM     23  C   LIG    1       -0.019  -0.024  -0.266  0.00  0.00    +0.103 A 
ATOM     24  C   LIG    1       -0.061   1.463  -0.507  0.00  0.00    +0.086 C 
ATOM     25  O   LIG    1        1.074  -0.795  -0.332  0.00  0.00    -0.455 OA
ENDBRANCH   1  20
TORSDOF 3
