REMARK  Name = ZINC000012979971
REMARK                            x       y       z     vdW  Elec       q    Type
REMARK                         _______ _______ _______ _____ _____    ______ ____
ROOT
ATOM      1  O   LIG    1        3.445  -3.700   5.732  0.00  0.00    -0.483 OA
ENDROOT
BRANCH   1   2
ATOM      2  C   LIG    1        2.778  -3.318   4.611  0.00  0.00    +0.121 A 
ATOM      3  C   LIG    1        1.402  -3.145   4.647  0.00  0.00    +0.046 A 
ATOM      4  C   LIG    1        0.726  -2.751   3.508  0.00  0.00    +0.008 A 
ATOM      5  C   LIG    1        1.419  -2.539   2.331  0.00  0.00    -0.037 A 
ATOM      6  C   LIG    1        2.790  -2.711   2.292  0.00  0.00    +0.008 A 
ATOM      7  C   LIG    1        3.471  -3.100   3.429  0.00  0.00    +0.046 A 
BRANCH   5   8
ATOM      8  C   LIG    1        0.679  -2.115   1.088  0.00  0.00    +0.155 C 
BRANCH   8   9
ATOM      9  C   LIG    1        0.618  -0.611   1.029  0.00  0.00    +0.311 C 
ATOM     10  O   LIG    1        1.124   0.049   1.905  0.00  0.00    -0.250 OA
BRANCH   9  11
ATOM     11  O   LIG    1        0.002  -0.004   0.002  0.00  0.00    -0.468 OA
ATOM     12  C   LIG    1       -0.018   1.448   0.010  0.00  0.00    +0.280 C 
ENDBRANCH   9  11
ENDBRANCH   8   9
ENDBRANCH   5   8
ENDBRANCH   1   2
BRANCH   1  13
ATOM     13  C   LIG    1        2.667  -3.906   6.912  0.00  0.00    +0.324 C 
BRANCH  13  14
ATOM     14  C   LIG    1        3.571  -4.322   8.043  0.00  0.00    +0.251 C 
ATOM     15  N   LIG    1        3.053  -4.573   9.262  0.00  0.00    -0.312 N 
ATOM     16  H   LIG    1        2.099  -4.486   9.411  0.00  0.00    +0.149 HD
ATOM     17  O   LIG    1        4.764  -4.431   7.857  0.00  0.00    -0.272 OA
BRANCH  15  18
ATOM     18  C   LIG    1        3.932  -4.978  10.362  0.00  0.00    +0.109 C 
BRANCH  18  19
ATOM     19  C   LIG    1        3.099  -5.199  11.626  0.00  0.00    +0.061 C 
BRANCH  19  20
ATOM     20  C   LIG    1        4.003  -5.615  12.758  0.00  0.00    -0.009 A 
ATOM     21  C   LIG    1        4.598  -4.782  13.613  0.00  0.00    +0.011 A 
ATOM     22  C   LIG    1        5.384  -5.396  14.573  0.00  0.00    +0.008 A 
ATOM     23  C   LIG    1        5.427  -6.727  14.498  0.00  0.00    +0.045 A 
ATOM     24  S   LIG    1        4.428  -7.274  13.158  0.00  0.00    -0.102 S 
ENDBRANCH  19  20
ENDBRANCH  18  19
ENDBRANCH  15  18
ENDBRANCH  13  14
ENDBRANCH   1  13
TORSDOF 9
