REMARK  Name = ZINC000069617737
REMARK                            x       y       z     vdW  Elec       q    Type
REMARK                         _______ _______ _______ _____ _____    ______ ____
ROOT
ATOM      1  S   LIG    1       -4.838  -4.208  -0.974  0.00  0.00    +0.072 S 
ATOM      2  O   LIG    1       -3.700  -5.025  -0.741  0.00  0.00    -0.150 OA
ATOM      3  O   LIG    1       -6.173  -4.678  -0.838  0.00  0.00    -0.150 OA
ENDROOT
BRANCH   1   4
ATOM      4  C   LIG    1       -4.689  -3.607  -2.624  0.00  0.00    +0.110 A 
ATOM      5  C   LIG    1       -3.461  -3.638  -3.259  0.00  0.00    +0.050 A 
ATOM      6  C   LIG    1       -3.338  -3.173  -4.554  0.00  0.00    +0.060 A 
ATOM      7  C   LIG    1       -4.456  -2.660  -5.217  0.00  0.00    +0.070 A 
ATOM      8  C   LIG    1       -5.691  -2.627  -4.566  0.00  0.00    +0.022 A 
ATOM      9 CL   LIG    1       -1.798  -3.219  -5.353  0.00  0.00    -0.082 Cl
ATOM     10  C   LIG    1       -5.800  -3.100  -3.275  0.00  0.00    +0.030 A 
BRANCH   7  11
ATOM     11  C   LIG    1       -4.336  -2.170  -6.557  0.00  0.00    +0.101 C 
ATOM     12  N   LIG    1       -4.241  -1.781  -7.620  0.00  0.00    -0.191 NA
ENDBRANCH   7  11
ENDBRANCH   1   4
BRANCH   1  13
ATOM     13  N   LIG    1       -4.695  -2.905   0.038  0.00  0.00    -0.215 N 
ATOM     14  H   LIG    1       -5.431  -2.661   0.620  0.00  0.00    +0.174 HD
BRANCH  13  15
ATOM     15  C   LIG    1       -3.511  -2.157   0.052  0.00  0.00    +0.066 A 
ATOM     16  C   LIG    1       -2.280  -2.793   0.097  0.00  0.00    +0.137 A 
ATOM     17  N   LIG    1       -1.160  -2.095   0.105  0.00  0.00    -0.238 NA
ATOM     18  C   LIG    1       -1.165  -0.772   0.083  0.00  0.00    +0.121 A 
ATOM     19  C   LIG    1       -2.363  -0.066   0.038  0.00  0.00    +0.045 A 
ATOM     20  C   LIG    1       -3.556  -0.765   0.022  0.00  0.00    +0.029 A 
BRANCH  18  21
ATOM     21  N   LIG    1        0.043  -0.078   0.098  0.00  0.00    -0.321 N 
ATOM     22  C   LIG    1        0.046   1.385   0.184  0.00  0.00    +0.130 C 
ATOM     23  C   LIG    1        1.310  -0.810   0.029  0.00  0.00    +0.130 C 
ENDBRANCH  18  21
ENDBRANCH  13  15
ENDBRANCH   1  13
TORSDOF 5
