REMARK  Name = ZINC000001054827
REMARK                            x       y       z     vdW  Elec       q    Type
REMARK                         _______ _______ _______ _____ _____    ______ ____
ROOT
ATOM      1  O   LIG    1        0.162  -0.367  -0.275  0.00  0.00    -0.269 OA
ATOM      2  C   LIG    1        0.090   0.841  -0.149  0.00  0.00    +0.253 C 
ATOM      3  N   LIG    1       -1.088   1.469  -0.331  0.00  0.00    -0.294 N 
ATOM      4  C   LIG    1       -2.351   0.718  -0.279  0.00  0.00    +0.127 C 
ATOM      5  C   LIG    1       -3.123   0.959  -1.577  0.00  0.00    +0.127 C 
ATOM      6  N   LIG    1       -3.169   2.405  -1.836  0.00  0.00    -0.296 N 
ATOM      7  C   LIG    1       -1.906   3.154  -1.894  0.00  0.00    +0.127 C 
ATOM      8  C   LIG    1       -4.347   3.033  -2.019  0.00  0.00    +0.245 C 
ATOM      9  O   LIG    1       -4.369   4.202  -2.341  0.00  0.00    -0.273 OA
ATOM     10  C   LIG    1       -1.134   2.914  -0.591  0.00  0.00    +0.127 C 
ENDROOT
BRANCH   2  11
ATOM     11  C   LIG    1        1.288   1.614   0.194  0.00  0.00    +0.075 A 
ATOM     12  S   LIG    1        1.317   3.326   0.584  0.00  0.00    -0.088 S 
ATOM     13  C   LIG    1        3.008   3.298   0.817  0.00  0.00    -0.006 A 
ATOM     14  C   LIG    1        3.843   4.503   1.209  0.00  0.00    +0.043 C 
ATOM     15  C   LIG    1        5.205   4.016   1.712  0.00  0.00    +0.005 C 
ATOM     16  C   LIG    1        5.791   3.035   0.692  0.00  0.00    +0.005 C 
ATOM     17  C   LIG    1        4.991   1.732   0.729  0.00  0.00    +0.036 C 
ATOM     18  C   LIG    1        3.509   2.061   0.601  0.00  0.00    -0.036 A 
ATOM     19  C   LIG    1        2.555   1.122   0.254  0.00  0.00    +0.024 A 
ENDBRANCH   2  11
BRANCH   8  20
ATOM     20  C   LIG    1       -5.639   2.282  -1.822  0.00  0.00    +0.204 C 
ATOM     21  C   LIG    1       -5.836   1.933  -0.326  0.00  0.00    +0.043 C 
ATOM     22  C   LIG    1       -7.382   1.796  -0.256  0.00  0.00    +0.031 C 
ATOM     23  C   LIG    1       -7.851   2.856  -1.276  0.00  0.00    +0.161 C 
ATOM     24  O   LIG    1       -6.758   3.115  -2.166  0.00  0.00    -0.367 OA
ENDBRANCH   8  20
TORSDOF 2
