REMARK  Name = ZINC000058191615
REMARK                            x       y       z     vdW  Elec       q    Type
REMARK                         _______ _______ _______ _____ _____    ______ ____
ROOT
ATOM      1  C   LIG    1       -3.662  -3.517   0.146  0.00  0.00    +0.095 A 
ATOM      2  C   LIG    1       -4.911  -3.622   0.646  0.00  0.00    +0.076 A 
ATOM      3  S   LIG    1       -5.398  -5.311   0.535  0.00  0.00    -0.078 S 
ATOM      4  C   LIG    1       -3.892  -5.713  -0.166  0.00  0.00    +0.097 A 
ATOM      5  N   LIG    1       -3.154  -4.664  -0.284  0.00  0.00    -0.241 NA
ENDROOT
BRANCH   1   6
ATOM      6  C   LIG    1       -2.927  -2.234   0.078  0.00  0.00    +0.069 A 
ATOM      7  C   LIG    1       -1.577  -2.099   0.043  0.00  0.00    -0.013 A 
ATOM      8  C   LIG    1       -0.556  -3.207   0.071  0.00  0.00    +0.047 C 
ATOM      9  C   LIG    1       -1.310  -0.658  -0.019  0.00  0.00    +0.041 A 
ATOM     10  C   LIG    1       -2.546  -0.038  -0.024  0.00  0.00    +0.024 A 
ATOM     11  C   LIG    1       -2.786   1.448  -0.086  0.00  0.00    +0.064 C 
ATOM     12  N   LIG    1       -3.498  -0.988   0.034  0.00  0.00    -0.356 N 
ATOM     13  H   LIG    1       -4.453  -0.815   0.043  0.00  0.00    +0.166 HD
BRANCH   9  14
ATOM     14  C   LIG    1        0.002  -0.007  -0.070  0.00  0.00    +0.162 C 
ATOM     15  O   LIG    1        0.582   0.270   0.958  0.00  0.00    -0.292 OA
ATOM     16  C   LIG    1        0.630   0.318  -1.401  0.00  0.00    +0.091 C 
ENDBRANCH   9  14
ENDBRANCH   1   6
BRANCH   4  17
ATOM     17  C   LIG    1       -3.486  -7.100  -0.593  0.00  0.00    +0.180 C 
BRANCH  17  18
ATOM     18  N   LIG    1       -2.831  -7.783   0.526  0.00  0.00    -0.218 N 
ATOM     19  C   LIG    1       -3.475  -8.524   1.435  0.00  0.00    +0.309 C 
ATOM     20  N   LIG    1       -2.644  -9.044   2.356  0.00  0.00    -0.290 N 
ATOM     21  H   LIG    1       -2.890  -9.612   3.103  0.00  0.00    +0.151 HD
ATOM     22  C   LIG    1       -1.289  -8.580   2.011  0.00  0.00    +0.202 C 
ATOM     23  O   LIG    1       -4.676  -8.711   1.426  0.00  0.00    -0.252 OA
ATOM     24  C   LIG    1       -1.506  -7.739   0.769  0.00  0.00    +0.241 C 
ATOM     25  O   LIG    1       -0.663  -7.149   0.128  0.00  0.00    -0.273 OA
ENDBRANCH  17  18
ENDBRANCH   4  17
TORSDOF 4
