REMARK  Name = ZINC000194250605
REMARK                            x       y       z     vdW  Elec       q    Type
REMARK                         _______ _______ _______ _____ _____    ______ ____
ROOT
ATOM      1  N   LIG    1       -2.105  -0.148  -1.230  0.00  0.00    -0.310 N 
ATOM      2  C   LIG    1       -3.387  -0.508  -1.443  0.00  0.00    +0.251 C 
ATOM      3  O   LIG    1       -3.985  -1.153  -0.603  0.00  0.00    -0.270 OA
ATOM      4  H   LIG    1       -1.628   0.366  -1.901  0.00  0.00    +0.149 HD
ENDROOT
BRANCH   2   5
ATOM      5  C   LIG    1       -4.061  -0.121  -2.691  0.00  0.00    +0.075 A 
ATOM      6  C   LIG    1       -5.327  -0.423  -2.996  0.00  0.00    +0.029 A 
ATOM      7  C   LIG    1       -5.779   0.043  -4.241  0.00  0.00    -0.008 A 
ATOM      8  C   LIG    1       -7.052  -0.114  -4.840  0.00  0.00    +0.041 A 
ATOM      9  C   LIG    1       -7.306   0.413  -6.067  0.00  0.00    +0.127 A 
ATOM     10  C   LIG    1       -6.324   1.114  -6.756  0.00  0.00    +0.034 A 
ATOM     11  C   LIG    1       -5.078   1.283  -6.201  0.00  0.00    +0.018 A 
ATOM     12  C   LIG    1       -4.792   0.750  -4.940  0.00  0.00    +0.020 A 
ATOM     13  S   LIG    1       -3.317   0.806  -3.982  0.00  0.00    -0.084 S 
BRANCH   9  14
ATOM     14  N   LIG    1       -8.644   0.238  -6.675  0.00  0.00    +0.056 N 
ATOM     15  O   LIG    1       -9.510  -0.375  -6.077  0.00  0.00    -0.126 OA
ATOM     16  O   LIG    1       -8.880   0.708  -7.774  0.00  0.00    -0.126 OA
ENDBRANCH   9  14
ENDBRANCH   2   5
BRANCH   1  17
ATOM     17  C   LIG    1       -1.433  -0.534   0.013  0.00  0.00    +0.115 C 
BRANCH  17  18
ATOM     18  C   LIG    1        0.002  -0.004   0.002  0.00  0.00    +0.071 C 
ATOM     19  C   LIG    1       -0.019   1.526   0.010  0.00  0.00    +0.017 C 
BRANCH  18  20
ATOM     20  C   LIG    1        0.731  -0.503   1.223  0.00  0.00    +0.137 A 
ATOM     21  N   LIG    1        0.400  -0.281   2.466  0.00  0.00    -0.134 NA
ATOM     22  N   LIG    1        1.243  -0.858   3.248  0.00  0.00    -0.138 NA
ATOM     23  C   LIG    1        2.150  -1.474   2.539  0.00  0.00    +0.224 A 
ATOM     24  N   LIG    1        1.848  -1.270   1.234  0.00  0.00    -0.320 N 
ATOM     25  C   LIG    1        2.584  -1.771   0.070  0.00  0.00    +0.151 C 
ENDBRANCH  18  20
ENDBRANCH  17  18
ENDBRANCH   1  17
TORSDOF 5
