REMARK  Name = ZINC000095991319
REMARK                            x       y       z     vdW  Elec       q    Type
REMARK                         _______ _______ _______ _____ _____    ______ ____
ROOT
ATOM      1  C   LIG    1        1.473   0.258   4.480  0.00  0.00    +0.213 C 
ATOM      2  N   LIG    1        2.641   0.475   5.116  0.00  0.00    -0.313 N 
ATOM      3  H   LIG    1        3.480   0.335   4.649  0.00  0.00    +0.149 HD
ATOM      4  O   LIG    1        0.423   0.433   5.062  0.00  0.00    -0.276 OA
ENDROOT
BRANCH   2   5
ATOM      5  C   LIG    1        2.643   0.922   6.511  0.00  0.00    +0.138 C 
BRANCH   5   6
ATOM      6  C   LIG    1        4.087   1.091   6.989  0.00  0.00    +0.164 C 
ATOM      7  C   LIG    1        4.123   1.506   8.482  0.00  0.00    +0.196 C 
ATOM      8  O   LIG    1        5.418   1.007   8.894  0.00  0.00    -0.346 OA
ATOM      9  C   LIG    1        5.587  -0.222   8.167  0.00  0.00    +0.171 C 
ATOM     10  C   LIG    1        5.149  -1.395   9.045  0.00  0.00    +0.065 C 
ATOM     11  C   LIG    1        6.012  -1.436  10.308  0.00  0.00    +0.008 C 
ATOM     12  C   LIG    1        7.481  -1.605   9.917  0.00  0.00    -0.014 C 
ATOM     13  C   LIG    1        8.343  -1.649  11.180  0.00  0.00    +0.007 C 
ATOM     14  C   LIG    1        7.916  -0.426   9.043  0.00  0.00    +0.008 C 
ATOM     15  C   LIG    1        7.057  -0.385   7.778  0.00  0.00    +0.065 C 
ATOM     16  O   LIG    1        4.778  -0.174   6.981  0.00  0.00    -0.342 OA
ENDBRANCH   5   6
ENDBRANCH   2   5
BRANCH   1  17
ATOM     17  C   LIG    1        1.470  -0.201   3.044  0.00  0.00    +0.100 C 
BRANCH  17  18
ATOM     18  C   LIG    1        0.027  -0.371   2.566  0.00  0.00    +0.048 C 
BRANCH  18  19
ATOM     19  C   LIG    1        0.024  -0.830   1.131  0.00  0.00    -0.004 A 
ATOM     20  C   LIG    1        0.034  -2.115   0.706  0.00  0.00    +0.039 A 
ATOM     21  C   LIG    1        0.055  -3.340   1.583  0.00  0.00    +0.065 C 
ATOM     22  N   LIG    1        0.029  -2.102  -0.644  0.00  0.00    -0.271 N 
ATOM     23  N   LIG    1        0.008  -0.765  -1.062  0.00  0.00    -0.176 NA
ATOM     24  C   LIG    1        0.041  -3.278  -1.517  0.00  0.00    +0.172 C 
ATOM     25  C   LIG    1        0.002  -0.004   0.002  0.00  0.00    +0.063 A 
ATOM     26  C   LIG    1       -0.018   1.503   0.010  0.00  0.00    +0.068 C 
ENDBRANCH  18  19
ENDBRANCH  17  18
ENDBRANCH   1  17
TORSDOF 5
