REMARK  Name = ZINC000025696789
REMARK                            x       y       z     vdW  Elec       q    Type
REMARK                         _______ _______ _______ _____ _____    ______ ____
ROOT
ATOM      1  O   LIG    1        0.002  -0.004   0.002  0.00  0.00    -0.270 OA
ATOM      2  C   LIG    1       -0.014   1.212   0.009  0.00  0.00    +0.244 C 
ATOM      3  N   LIG    1        1.143   1.901   0.001  0.00  0.00    -0.306 N 
ATOM      4  H   LIG    1        1.130   2.871   0.007  0.00  0.00    +0.149 HD
ENDROOT
BRANCH   2   5
ATOM      5  C   LIG    1       -1.302   1.932   0.019  0.00  0.00    +0.039 A 
ATOM      6  C   LIG    1       -1.319   3.329   0.021  0.00  0.00    +0.014 A 
ATOM      7  C   LIG    1       -2.523   3.999   0.028  0.00  0.00    +0.017 A 
ATOM      8  C   LIG    1       -3.716   3.287   0.034  0.00  0.00    +0.030 A 
ATOM      9  C   LIG    1       -3.712   1.888   0.036  0.00  0.00    +0.048 A 
ATOM     10  N   LIG    1       -4.898   1.157   0.048  0.00  0.00    -0.284 N 
ATOM     11  H   LIG    1       -4.852   0.246   0.377  0.00  0.00    +0.155 HD
ATOM     12  C   LIG    1       -6.089   1.597  -0.352  0.00  0.00    +0.227 C 
ATOM     13  O   LIG    1       -7.031   0.834  -0.297  0.00  0.00    -0.275 OA
ATOM     14  C   LIG    1       -6.329   2.989  -0.868  0.00  0.00    +0.170 C 
ATOM     15  S   LIG    1       -5.258   4.146   0.035  0.00  0.00    -0.114 S 
ATOM     16  C   LIG    1       -2.501   1.216   0.021  0.00  0.00    +0.037 A 
ENDBRANCH   2   5
BRANCH   3  17
ATOM     17  C   LIG    1        2.422   1.186  -0.015  0.00  0.00    +0.161 C 
BRANCH  17  18
ATOM     18  C   LIG    1        3.554   2.181  -0.020  0.00  0.00    +0.077 A 
ATOM     19  C   LIG    1        4.223   2.620   1.069  0.00  0.00    +0.117 A 
ATOM     20  N   LIG    1        5.168   3.508   0.632  0.00  0.00    -0.306 N 
ATOM     21  C   LIG    1        6.112   4.247   1.284  0.00  0.00    +0.092 A 
ATOM     22  C   LIG    1        6.938   5.066   0.599  0.00  0.00    +0.018 A 
ATOM     23  C   LIG    1        6.836   5.168  -0.798  0.00  0.00    +0.005 A 
ATOM     24  C   LIG    1        5.900   4.436  -1.461  0.00  0.00    +0.047 A 
ATOM     25  C   LIG    1        5.045   3.586  -0.731  0.00  0.00    +0.138 A 
ATOM     26  N   LIG    1        4.067   2.772  -1.102  0.00  0.00    -0.231 NA
ENDBRANCH  17  18
ENDBRANCH   3  17
TORSDOF 3
