REMARK  Name = ZINC000095991232
REMARK                            x       y       z     vdW  Elec       q    Type
REMARK                         _______ _______ _______ _____ _____    ______ ____
ROOT
ATOM      1  C   LIG    1        0.043  -3.365  -1.398  0.00  0.00    +0.271 C 
ATOM      2  N   LIG    1        0.163  -4.562  -0.790  0.00  0.00    -0.255 N 
ATOM      3  C   LIG    1        0.166  -4.671   0.677  0.00  0.00    +0.210 C 
ATOM      4  C   LIG    1        1.214  -5.670   1.096  0.00  0.00    +0.235 C 
ATOM      5  O   LIG    1        1.757  -5.550   2.174  0.00  0.00    -0.274 OA
ATOM      6  N   LIG    1        1.556  -6.693   0.289  0.00  0.00    -0.281 N 
ATOM      7  H   LIG    1        2.203  -7.350   0.593  0.00  0.00    +0.155 HD
ATOM      8  C   LIG    1        0.988  -6.817  -0.981  0.00  0.00    +0.073 A 
ATOM      9  C   LIG    1        1.100  -7.984  -1.714  0.00  0.00    +0.135 A 
ATOM     10  N   LIG    1        0.557  -8.073  -2.915  0.00  0.00    -0.261 NA
ATOM     11  C   LIG    1       -0.105  -7.073  -3.465  0.00  0.00    +0.112 A 
ATOM     12  C   LIG    1       -0.264  -5.871  -2.797  0.00  0.00    +0.045 A 
ATOM     13  C   LIG    1        0.282  -5.738  -1.532  0.00  0.00    +0.061 A 
ATOM     14  O   LIG    1       -0.020  -3.303  -2.611  0.00  0.00    -0.268 OA
ENDROOT
BRANCH   1  15
ATOM     15  C   LIG    1       -0.014  -2.130  -0.592  0.00  0.00    +0.148 A 
ATOM     16  N   LIG    1       -0.077  -2.055   0.724  0.00  0.00    -0.161 NA
ATOM     17  N   LIG    1       -0.107  -0.826   1.095  0.00  0.00    -0.236 N 
ATOM     18  C   LIG    1       -0.073  -0.009   0.010  0.00  0.00    +0.043 A 
ATOM     19  C   LIG    1       -0.095   1.498   0.023  0.00  0.00    +0.066 C 
ATOM     20  C   LIG    1       -0.009  -0.803  -1.084  0.00  0.00    +0.058 A 
BRANCH  17  21
ATOM     21  C   LIG    1       -0.174  -0.391   2.425  0.00  0.00    +0.066 A 
ATOM     22  C   LIG    1       -0.903  -1.117   3.359  0.00  0.00    +0.028 A 
ATOM     23  C   LIG    1       -0.963  -0.688   4.670  0.00  0.00    +0.005 A 
ATOM     24  C   LIG    1       -0.308   0.468   5.052  0.00  0.00    -0.050 A 
ATOM     25  C   LIG    1       -0.382   0.937   6.483  0.00  0.00    +0.044 C 
ATOM     26  C   LIG    1        0.413   1.197   4.124  0.00  0.00    +0.005 A 
ATOM     27  C   LIG    1        0.482   0.770   2.812  0.00  0.00    +0.028 A 
ENDBRANCH  17  21
ENDBRANCH   1  15
TORSDOF 2
