REMARK  Name = ZINC000082238068
REMARK                            x       y       z     vdW  Elec       q    Type
REMARK                         _______ _______ _______ _____ _____    ______ ____
ROOT
ATOM      1  N   LIG    1       -2.806  -3.896   0.008  0.00  0.00    -0.213 N 
ATOM      2  C   LIG    1       -2.745  -4.658   1.118  0.00  0.00    +0.252 C 
ATOM      3  O   LIG    1       -2.764  -4.277   2.269  0.00  0.00    -0.272 OA
ATOM      4  C   LIG    1       -2.657  -6.090   0.629  0.00  0.00    +0.138 C 
ATOM      5  N   LIG    1       -2.672  -5.956  -0.838  0.00  0.00    -0.281 N 
ATOM      6  H   LIG    1       -2.628  -6.676  -1.486  0.00  0.00    +0.152 HD
ATOM      7  C   LIG    1       -2.761  -4.640  -1.103  0.00  0.00    +0.310 C 
ATOM      8  O   LIG    1       -2.797  -4.178  -2.227  0.00  0.00    -0.252 OA
ENDROOT
BRANCH   4   9
ATOM      9  C   LIG    1       -1.373  -6.728   1.090  0.00  0.00    -0.015 A 
ATOM     10  C   LIG    1       -1.355  -7.490   2.243  0.00  0.00    +0.007 A 
ATOM     11  C   LIG    1       -0.176  -8.077   2.666  0.00  0.00    +0.020 A 
ATOM     12  C   LIG    1        0.985  -7.901   1.935  0.00  0.00    +0.044 A 
ATOM     13 CL   LIG    1        2.465  -8.638   2.465  0.00  0.00    -0.083 Cl
ATOM     14  C   LIG    1        0.966  -7.138   0.780  0.00  0.00    -0.032 A 
ATOM     15  C   LIG    1        2.231  -6.947  -0.017  0.00  0.00    +0.045 C 
ATOM     16  C   LIG    1       -0.213  -6.557   0.356  0.00  0.00    +0.011 A 
ENDBRANCH   4   9
BRANCH   4  17
ATOM     17  C   LIG    1       -3.862  -6.902   1.108  0.00  0.00    +0.037 C 
ATOM     18  C   LIG    1       -5.148  -6.273   0.568  0.00  0.00    +0.007 C 
ENDBRANCH   4  17
BRANCH   1  19
ATOM     19  C   LIG    1       -2.902  -2.434   0.017  0.00  0.00    +0.238 C 
BRANCH  19  20
ATOM     20  C   LIG    1       -1.518  -1.840   0.007  0.00  0.00    +0.325 C 
ATOM     21  O   LIG    1       -0.550  -2.562  -0.006  0.00  0.00    -0.249 OA
BRANCH  20  22
ATOM     22  O   LIG    1       -1.360  -0.507   0.012  0.00  0.00    -0.464 OA
BRANCH  22  23
ATOM     23  C   LIG    1        0.002  -0.004   0.002  0.00  0.00    +0.229 C 
ATOM     24  C   LIG    1       -0.019   1.526   0.010  0.00  0.00    +0.048 C 
ENDBRANCH  22  23
ENDBRANCH  20  22
ENDBRANCH  19  20
ENDBRANCH   1  19
TORSDOF 6
