REMARK  Name = ZINC000082138926
REMARK                            x       y       z     vdW  Elec       q    Type
REMARK                         _______ _______ _______ _____ _____    ______ ____
ROOT
ATOM      1  N   LIG    1        2.954   1.964   0.149  0.00  0.00    -0.267 N 
ATOM      2  C   LIG    1        3.591   1.612   1.267  0.00  0.00    +0.237 C 
ATOM      3  O   LIG    1        3.157   2.006   2.328  0.00  0.00    -0.274 OA
ATOM      4  C   LIG    1        4.816   0.740   1.272  0.00  0.00    +0.204 C 
ATOM      5  N   LIG    1        4.981   0.140  -0.061  0.00  0.00    -0.287 N 
ATOM      6  C   LIG    1        5.324  -1.155  -0.209  0.00  0.00    +0.250 C 
ATOM      7  O   LIG    1        5.356  -1.651  -1.319  0.00  0.00    -0.270 OA
ATOM      8  C   LIG    1        4.755   1.012  -1.226  0.00  0.00    +0.128 C 
ATOM      9  C   LIG    1        3.305   1.498  -1.185  0.00  0.00    +0.132 C 
ENDROOT
BRANCH   6  10
ATOM     10  C   LIG    1        5.660  -1.970   0.974  0.00  0.00    +0.072 A 
ATOM     11  C   LIG    1        6.455  -1.435   1.991  0.00  0.00    +0.019 A 
ATOM     12  C   LIG    1        6.766  -2.201   3.094  0.00  0.00    +0.039 A 
ATOM     13  C   LIG    1        6.291  -3.500   3.197  0.00  0.00    +0.126 A 
ATOM     14  F   LIG    1        6.600  -4.244   4.282  0.00  0.00    -0.205 F 
ATOM     15  C   LIG    1        5.502  -4.037   2.194  0.00  0.00    +0.077 A 
ATOM     16  C   LIG    1        5.178  -3.279   1.086  0.00  0.00    +0.138 A 
ATOM     17  F   LIG    1        4.408  -3.803   0.107  0.00  0.00    -0.205 F 
ENDBRANCH   6  10
BRANCH   1  18
ATOM     18  C   LIG    1        1.881   2.846   0.266  0.00  0.00    +0.054 A 
ATOM     19  C   LIG    1        0.579   2.353   0.447  0.00  0.00    +0.073 A 
ATOM     20  C   LIG    1       -0.487   3.247   0.563  0.00  0.00    +0.021 A 
ATOM     21  C   LIG    1       -0.258   4.605   0.492  0.00  0.00    +0.001 A 
ATOM     22  C   LIG    1        1.027   5.088   0.307  0.00  0.00    +0.002 A 
ATOM     23  C   LIG    1        2.092   4.216   0.190  0.00  0.00    +0.025 A 
BRANCH  19  24
ATOM     24  C   LIG    1        0.348   0.942   0.520  0.00  0.00    +0.101 C 
ATOM     25  N   LIG    1        0.164  -0.178   0.578  0.00  0.00    -0.191 NA
ENDBRANCH  19  24
ENDBRANCH   1  18
TORSDOF 3
