REMARK  Name = ZINC000001078417
REMARK                            x       y       z     vdW  Elec       q    Type
REMARK                         _______ _______ _______ _____ _____    ______ ____
ROOT
ATOM      1  N   LIG    1        3.467  -3.616  -6.062  0.00  0.00    -0.206 N 
ATOM      2  C   LIG    1        4.363  -2.718  -6.794  0.00  0.00    +0.157 C 
ENDROOT
BRANCH   1   3
ATOM      3  C   LIG    1        2.825  -3.172  -4.911  0.00  0.00    +0.051 A 
ATOM      4  C   LIG    1        3.049  -3.817  -3.698  0.00  0.00    +0.025 A 
ATOM      5  C   LIG    1        2.419  -3.376  -2.556  0.00  0.00    +0.015 A 
ATOM      6  C   LIG    1        1.546  -2.286  -2.618  0.00  0.00    +0.037 A 
ATOM      7  C   LIG    1        1.323  -1.641  -3.838  0.00  0.00    +0.015 A 
ATOM      8  C   LIG    1        1.960  -2.083  -4.975  0.00  0.00    +0.025 A 
BRANCH   6   9
ATOM      9  C   LIG    1        0.866  -1.814  -1.397  0.00  0.00    +0.244 C 
ATOM     10  O   LIG    1        1.064  -2.373  -0.336  0.00  0.00    -0.270 OA
ATOM     11  N   LIG    1        0.024  -0.763  -1.459  0.00  0.00    -0.312 N 
ATOM     12  H   LIG    1       -0.134  -0.317  -2.305  0.00  0.00    +0.149 HD
BRANCH  11  13
ATOM     13  C   LIG    1       -0.652  -0.294  -0.246  0.00  0.00    +0.101 C 
ATOM     14  C   LIG    1       -1.543   0.902  -0.589  0.00  0.00    +0.024 C 
ENDBRANCH  11  13
ENDBRANCH   6   9
ENDBRANCH   1   3
BRANCH   1  15
ATOM     15  S   LIG    1        3.219  -5.161  -6.604  0.00  0.00    +0.074 S 
ATOM     16  O   LIG    1        2.679  -5.889  -5.509  0.00  0.00    -0.150 OA
ATOM     17  O   LIG    1        4.408  -5.545  -7.281  0.00  0.00    -0.150 OA
BRANCH  15  18
ATOM     18  C   LIG    1        1.952  -5.088  -7.826  0.00  0.00    +0.109 A 
ATOM     19  C   LIG    1        0.627  -5.219  -7.455  0.00  0.00    +0.032 A 
ATOM     20  C   LIG    1       -0.369  -5.162  -8.411  0.00  0.00    +0.047 A 
ATOM     21  C   LIG    1       -0.037  -4.973  -9.745  0.00  0.00    +0.120 A 
ATOM     22  C   LIG    1        1.293  -4.842 -10.115  0.00  0.00    +0.047 A 
ATOM     23  C   LIG    1        2.285  -4.895  -9.154  0.00  0.00    +0.032 A 
BRANCH  21  24
ATOM     24  O   LIG    1       -1.015  -4.916 -10.688  0.00  0.00    -0.495 OA
ATOM     25  C   LIG    1       -0.600  -4.720 -12.041  0.00  0.00    +0.277 C 
ENDBRANCH  21  24
ENDBRANCH  15  18
ENDBRANCH   1  15
TORSDOF 6
