REMARK  Name = ZINC000009616321
REMARK                            x       y       z     vdW  Elec       q    Type
REMARK                         _______ _______ _______ _____ _____    ______ ____
ROOT
ATOM      1  C   LIG    1        2.422   1.187  -0.011  0.00  0.00    +0.184 C 
ENDROOT
BRANCH   1   2
ATOM      2  N   LIG    1        1.143   1.902   0.007  0.00  0.00    -0.292 N 
ATOM      3  H   LIG    1        1.130   2.871   0.019  0.00  0.00    +0.151 HD
ATOM      4  C   LIG    1       -0.014   1.212   0.007  0.00  0.00    +0.304 C 
ATOM      5  N   LIG    1       -1.191   1.870   0.018  0.00  0.00    -0.269 N 
ATOM      6  H   LIG    1       -1.205   2.836   0.098  0.00  0.00    +0.156 HD
ATOM      7  O   LIG    1        0.002  -0.004  -0.008  0.00  0.00    -0.252 OA
BRANCH   5   8
ATOM      8  C   LIG    1       -2.391   1.158  -0.086  0.00  0.00    +0.035 A 
ATOM      9  C   LIG    1       -2.510  -0.096   0.499  0.00  0.00    +0.023 A 
ATOM     10  C   LIG    1       -3.698  -0.793   0.399  0.00  0.00    +0.002 A 
ATOM     11  C   LIG    1       -4.765  -0.249  -0.292  0.00  0.00    +0.000 A 
ATOM     12  C   LIG    1       -4.648   0.997  -0.880  0.00  0.00    +0.002 A 
ATOM     13  C   LIG    1       -3.465   1.702  -0.779  0.00  0.00    +0.023 A 
ENDBRANCH   5   8
ENDBRANCH   1   2
BRANCH   1  14
ATOM     14  C   LIG    1        3.554   2.182  -0.006  0.00  0.00    +0.174 A 
ATOM     15  N   LIG    1        4.163   2.697   1.083  0.00  0.00    -0.195 N 
ATOM     16  N   LIG    1        5.146   3.567   0.580  0.00  0.00    -0.039 NA
ATOM     17  N   LIG    1        5.057   3.521  -0.706  0.00  0.00    -0.023 NA
ATOM     18  N   LIG    1        4.125   2.710  -1.057  0.00  0.00    -0.111 NA
BRANCH  15  19
ATOM     19  C   LIG    1        3.881   2.417   2.429  0.00  0.00    +0.072 A 
ATOM     20  C   LIG    1        4.910   2.376   3.361  0.00  0.00    +0.069 A 
ATOM     21  C   LIG    1        4.629   2.106   4.687  0.00  0.00    +0.160 A 
ATOM     22  F   LIG    1        5.628   2.071   5.596  0.00  0.00    -0.202 F 
ATOM     23  C   LIG    1        3.322   1.865   5.084  0.00  0.00    +0.159 A 
ATOM     24  F   LIG    1        3.049   1.595   6.379  0.00  0.00    -0.202 F 
ATOM     25  C   LIG    1        2.297   1.900   4.154  0.00  0.00    +0.043 A 
ATOM     26  C   LIG    1        2.574   2.175   2.829  0.00  0.00    +0.031 A 
ENDBRANCH  15  19
ENDBRANCH   1  14
TORSDOF 4
