REMARK  Name = ZINC000005597398
REMARK                            x       y       z     vdW  Elec       q    Type
REMARK                         _______ _______ _______ _____ _____    ______ ____
ROOT
ATOM      1  S   LIG    1        3.681  -4.040   6.121  0.00  0.00    +0.058 S 
ATOM      2  O   LIG    1        2.715  -4.709   6.919  0.00  0.00    -0.153 OA
ATOM      3  O   LIG    1        4.869  -4.663   5.652  0.00  0.00    -0.153 OA
ENDROOT
BRANCH   1   4
ATOM      4  C   LIG    1        2.829  -3.455   4.694  0.00  0.00    +0.105 A 
ATOM      5  C   LIG    1        1.463  -3.248   4.741  0.00  0.00    +0.029 A 
ATOM      6  C   LIG    1        0.795  -2.786   3.622  0.00  0.00    +0.005 A 
ATOM      7  C   LIG    1        1.492  -2.540   2.454  0.00  0.00    -0.047 A 
ATOM      8  C   LIG    1        2.858  -2.746   2.407  0.00  0.00    +0.005 A 
ATOM      9  C   LIG    1        3.526  -3.204   3.527  0.00  0.00    +0.029 A 
BRANCH   7  10
ATOM     10  C   LIG    1        0.763  -2.041   1.233  0.00  0.00    +0.035 C 
BRANCH  10  11
ATOM     11  C   LIG    1        0.742  -0.511   1.242  0.00  0.00    +0.004 C 
BRANCH  11  12
ATOM     12  C   LIG    1        0.002  -0.004   0.002  0.00  0.00    -0.003 C 
ATOM     13  C   LIG    1       -0.019   1.526   0.010  0.00  0.00    +0.004 C 
ENDBRANCH  11  12
ENDBRANCH  10  11
ENDBRANCH   7  10
ENDBRANCH   1   4
BRANCH   1  14
ATOM     14  N   LIG    1        4.160  -2.710   6.984  0.00  0.00    -0.190 NA
ATOM     15  H   LIG    1        5.105  -2.518   7.095  0.00  0.00    +0.148 HD
BRANCH  14  16
ATOM     16  C   LIG    1        3.158  -1.824   7.581  0.00  0.00    +0.107 C 
BRANCH  16  17
ATOM     17  C   LIG    1        3.830  -0.915   8.612  0.00  0.00    +0.036 C 
BRANCH  17  18
ATOM     18  C   LIG    1        2.784   0.011   9.235  0.00  0.00    +0.109 C 
BRANCH  18  19
ATOM     19  N   LIG    1        3.427   0.881  10.222  0.00  0.00    -0.301 N 
ATOM     20  C   LIG    1        3.583   0.548  11.643  0.00  0.00    +0.108 C 
ATOM     21  C   LIG    1        4.665   1.513  12.176  0.00  0.00    +0.028 C 
ATOM     22  C   LIG    1        4.540   2.701  11.194  0.00  0.00    +0.097 C 
ATOM     23  C   LIG    1        3.956   2.085   9.942  0.00  0.00    +0.216 C 
ATOM     24  O   LIG    1        3.958   2.605   8.846  0.00  0.00    -0.276 OA
ENDBRANCH  18  19
ENDBRANCH  17  18
ENDBRANCH  16  17
ENDBRANCH  14  16
ENDBRANCH   1  14
TORSDOF 9
