REMARK  Name = ZINC000082097513
REMARK                            x       y       z     vdW  Elec       q    Type
REMARK                         _______ _______ _______ _____ _____    ______ ____
ROOT
ATOM      1  O   LIG    1        0.002  -0.004   0.002  0.00  0.00    -0.273 OA
ATOM      2  C   LIG    1       -0.014   1.209   0.009  0.00  0.00    +0.241 C 
ATOM      3  N   LIG    1       -1.194   1.858   0.029  0.00  0.00    -0.282 N 
ATOM      4  H   LIG    1       -2.020   1.351   0.072  0.00  0.00    +0.155 HD
ATOM      5  C   LIG    1       -1.241   3.256  -0.012  0.00  0.00    +0.055 A 
ATOM      6  C   LIG    1       -2.410   3.935   0.294  0.00  0.00    +0.025 A 
ATOM      7  C   LIG    1       -2.437   5.317   0.242  0.00  0.00    +0.002 A 
ATOM      8  C   LIG    1       -1.305   6.026  -0.112  0.00  0.00    +0.002 A 
ATOM      9  C   LIG    1       -0.132   5.357  -0.416  0.00  0.00    +0.025 A 
ATOM     10  C   LIG    1       -0.097   3.975  -0.365  0.00  0.00    +0.049 A 
ATOM     11  N   LIG    1        1.078   3.269  -0.660  0.00  0.00    -0.329 N 
ATOM     12  H   LIG    1        1.735   3.628  -1.277  0.00  0.00    +0.147 HD
ATOM     13  C   LIG    1        1.285   1.970   0.000  0.00  0.00    +0.111 C 
ATOM     14  C   LIG    1        1.770   2.198   1.433  0.00  0.00    +0.050 C 
ATOM     15  C   LIG    1        3.120   2.918   1.403  0.00  0.00    +0.087 C 
ATOM     16  N   LIG    1        4.092   2.110   0.656  0.00  0.00    -0.294 NA
ATOM     17  C   LIG    1        3.669   1.923  -0.738  0.00  0.00    +0.087 C 
ATOM     18  C   LIG    1        2.337   1.171  -0.771  0.00  0.00    +0.050 C 
ENDROOT
BRANCH  16  19
ATOM     19  C   LIG    1        5.434   2.704   0.723  0.00  0.00    +0.182 C 
BRANCH  19  20
ATOM     20  C   LIG    1        6.347   1.996  -0.244  0.00  0.00    +0.231 A 
ATOM     21  O   LIG    1        7.102   0.916   0.020  0.00  0.00    -0.423 OA
ATOM     22  C   LIG    1        7.750   0.619  -1.119  0.00  0.00    +0.220 A 
ATOM     23  N   LIG    1        7.391   1.498  -2.012  0.00  0.00    -0.112 NA
ATOM     24  N   LIG    1        6.553   2.321  -1.489  0.00  0.00    -0.111 NA
BRANCH  22  25
ATOM     25  C   LIG    1        8.717  -0.518  -1.325  0.00  0.00    +0.077 C 
ATOM     26  C   LIG    1       10.147  -0.163  -1.738  0.00  0.00    +0.013 C 
ATOM     27  C   LIG    1        9.191  -0.793  -2.753  0.00  0.00    +0.013 C 
ENDBRANCH  22  25
ENDBRANCH  19  20
ENDBRANCH  16  19
TORSDOF 3
