REMARK  Name = ZINC000134404754
REMARK                            x       y       z     vdW  Elec       q    Type
REMARK                         _______ _______ _______ _____ _____    ______ ____
ROOT
ATOM      1  C   LIG    1        0.036  -0.351   2.509  0.00  0.00    +0.110 C 
ATOM      2  C   LIG    1        1.434   0.192   2.873  0.00  0.00    +0.029 C 
ATOM      3  C   LIG    1        1.109   1.403   3.788  0.00  0.00    +0.021 C 
ATOM      4  C   LIG    1       -0.185   1.948   3.134  0.00  0.00    +0.109 C 
ATOM      5  N   LIG    1       -0.925   0.746   2.698  0.00  0.00    -0.287 N 
ATOM      6  C   LIG    1       -2.256   0.670   2.504  0.00  0.00    +0.302 C 
ATOM      7  O   LIG    1       -2.758  -0.374   2.143  0.00  0.00    -0.265 OA
ENDROOT
BRANCH   1   8
ATOM      8  C   LIG    1        0.021  -0.803   1.072  0.00  0.00    +0.016 A 
ATOM      9  C   LIG    1        0.033  -2.086   0.641  0.00  0.00    +0.038 A 
ATOM     10  C   LIG    1        0.068  -3.316   1.511  0.00  0.00    +0.065 C 
ATOM     11  N   LIG    1        0.013  -2.067  -0.708  0.00  0.00    -0.281 N 
ATOM     12  N   LIG    1       -0.018  -0.728  -1.120  0.00  0.00    -0.179 NA
ATOM     13  H   LIG    1        0.018  -2.843  -1.290  0.00  0.00    +0.189 HD
ATOM     14  C   LIG    1       -0.017   0.028  -0.052  0.00  0.00    +0.065 A 
ATOM     15  C   LIG    1       -0.043   1.535  -0.037  0.00  0.00    +0.068 C 
ENDBRANCH   1   8
BRANCH   6  16
ATOM     16  C   LIG    1       -3.114   1.871   2.733  0.00  0.00    +0.303 C 
ATOM     17  O   LIG    1       -2.611   2.916   3.094  0.00  0.00    -0.265 OA
ATOM     18  N   LIG    1       -4.445   1.796   2.539  0.00  0.00    -0.276 N 
ATOM     19  H   LIG    1       -4.839   0.981   2.191  0.00  0.00    +0.155 HD
BRANCH  18  20
ATOM     20  C   LIG    1       -5.258   2.892   2.839  0.00  0.00    +0.055 A 
ATOM     21  C   LIG    1       -6.546   2.702   3.327  0.00  0.00    +0.060 A 
ATOM     22  N   LIG    1       -7.314   3.734   3.615  0.00  0.00    -0.255 NA
ATOM     23  C   LIG    1       -6.902   4.975   3.446  0.00  0.00    +0.039 A 
ATOM     24  C   LIG    1       -7.825   6.117   3.787  0.00  0.00    +0.065 C 
ATOM     25  C   LIG    1       -5.636   5.245   2.959  0.00  0.00    +0.025 A 
ATOM     26  C   LIG    1       -7.065   1.303   3.538  0.00  0.00    +0.067 C 
ATOM     27  C   LIG    1       -4.793   4.191   2.648  0.00  0.00    +0.027 A 
ENDBRANCH  18  20
ENDBRANCH   6  16
TORSDOF 3
