REMARK  Name = ZINC000222231772
REMARK                            x       y       z     vdW  Elec       q    Type
REMARK                         _______ _______ _______ _____ _____    ______ ____
ROOT
ATOM      1  C   LIG    1        0.626  -0.618   1.041  0.00  0.00    +0.121 A 
ATOM      2  C   LIG    1        1.203   0.154   2.053  0.00  0.00    +0.046 A 
ATOM      3  C   LIG    1        1.834  -0.431   3.106  0.00  0.00    +0.012 A 
ATOM      4  C   LIG    1        1.909  -1.833   3.183  0.00  0.00    -0.016 A 
ATOM      5  C   LIG    1        2.553  -2.471   4.256  0.00  0.00    +0.037 A 
ATOM      6  C   LIG    1        2.606  -3.830   4.298  0.00  0.00    +0.106 A 
ATOM      7  C   LIG    1        2.031  -4.603   3.291  0.00  0.00    +0.029 A 
ATOM      8  C   LIG    1        1.399  -4.020   2.236  0.00  0.00    +0.010 A 
ATOM      9  C   LIG    1        1.324  -2.619   2.158  0.00  0.00    -0.014 A 
ATOM     10  C   LIG    1        0.675  -1.983   1.087  0.00  0.00    +0.054 A 
ENDROOT
BRANCH   6  11
ATOM     11  S   LIG    1        3.414  -4.626   5.647  0.00  0.00    +0.059 S 
ATOM     12  O   LIG    1        4.335  -3.682   6.176  0.00  0.00    -0.153 OA
ATOM     13  O   LIG    1        3.799  -5.912   5.182  0.00  0.00    -0.153 OA
BRANCH  11  14
ATOM     14  N   LIG    1        2.274  -4.875   6.823  0.00  0.00    -0.186 NA
ATOM     15  H   LIG    1        2.350  -4.421   7.676  0.00  0.00    +0.148 HD
BRANCH  14  16
ATOM     16  C   LIG    1        1.152  -5.784   6.574  0.00  0.00    +0.085 C 
ATOM     17  C   LIG    1        1.150  -7.021   7.484  0.00  0.00    +0.052 C 
ATOM     18  C   LIG    1       -0.371  -6.850   7.604  0.00  0.00    +0.124 C 
ATOM     19  O   LIG    1       -1.099  -7.399   6.486  0.00  0.00    -0.376 OA
ATOM     20  C   LIG    1       -2.058  -6.384   6.117  0.00  0.00    +0.160 C 
ATOM     21  C   LIG    1       -1.288  -5.051   6.237  0.00  0.00    +0.035 C 
ATOM     22  C   LIG    1       -0.152  -5.352   7.264  0.00  0.00    +0.039 C 
ENDBRANCH  14  16
ENDBRANCH  11  14
ENDBRANCH   6  11
BRANCH   1  23
ATOM     23  O   LIG    1        0.002  -0.004   0.002  0.00  0.00    -0.495 OA
ATOM     24  C   LIG    1       -0.017   1.425   0.010  0.00  0.00    +0.277 C 
ENDBRANCH   1  23
TORSDOF 4
