REMARK  Name = ZINC000095993907
REMARK                            x       y       z     vdW  Elec       q    Type
REMARK                         _______ _______ _______ _____ _____    ______ ____
ROOT
ATOM      1  C   LIG    1       -3.713  -4.320   1.563  0.00  0.00    +0.122 C 
ENDROOT
BRANCH   1   2
ATOM      2  N   LIG    1       -2.563  -3.511   1.148  0.00  0.00    -0.224 N 
ATOM      3  C   LIG    1       -1.430  -3.399   1.850  0.00  0.00    +0.309 C 
ATOM      4  O   LIG    1       -1.235  -3.959   2.911  0.00  0.00    -0.252 OA
ATOM      5  N   LIG    1       -0.532  -2.597   1.251  0.00  0.00    -0.283 N 
ATOM      6  H   LIG    1        0.354  -2.373   1.578  0.00  0.00    +0.151 HD
ATOM      7  C   LIG    1       -1.154  -2.126   0.002  0.00  0.00    +0.133 C 
ATOM      8  C   LIG    1       -0.342  -2.583  -1.213  0.00  0.00    +0.044 C 
ATOM      9  C   LIG    1       -2.517  -2.789   0.011  0.00  0.00    +0.249 C 
ATOM     10  O   LIG    1       -3.386  -2.688  -0.829  0.00  0.00    -0.273 OA
BRANCH   7  11
ATOM     11  C   LIG    1       -1.295  -0.603   0.011  0.00  0.00    +0.194 C 
BRANCH  11  12
ATOM     12  O   LIG    1        0.002  -0.004   0.002  0.00  0.00    -0.380 OA
ATOM     13  C   LIG    1       -0.017   1.425   0.010  0.00  0.00    +0.194 C 
ENDBRANCH  11  12
ENDBRANCH   7  11
ENDBRANCH   1   2
BRANCH   1  14
ATOM     14  C   LIG    1       -4.659  -3.464   2.408  0.00  0.00    +0.055 C 
BRANCH  14  15
ATOM     15  C   LIG    1       -5.841  -4.296   2.835  0.00  0.00    -0.042 A 
ATOM     16  C   LIG    1       -5.795  -5.004   4.021  0.00  0.00    +0.049 A 
ATOM     17  C   LIG    1       -6.885  -5.764   4.416  0.00  0.00    +0.130 A 
ATOM     18  C   LIG    1       -8.016  -5.821   3.614  0.00  0.00    +0.046 A 
ATOM     19  C   LIG    1       -8.055  -5.116   2.427  0.00  0.00    +0.004 A 
ATOM     20  C   LIG    1       -6.969  -4.354   2.037  0.00  0.00    +0.004 A 
BRANCH  17  21
ATOM     21  O   LIG    1       -6.844  -6.457   5.584  0.00  0.00    -0.406 OA
BRANCH  21  22
ATOM     22  C   LIG    1       -8.001  -7.224   5.925  0.00  0.00    +0.575 C 
ATOM     23  F   LIG    1       -7.789  -7.869   7.148  0.00  0.00    -0.133 F 
ATOM     24  F   LIG    1       -9.108  -6.376   6.030  0.00  0.00    -0.133 F 
ATOM     25  F   LIG    1       -8.237  -8.179   4.929  0.00  0.00    -0.133 F 
ENDBRANCH  21  22
ENDBRANCH  17  21
ENDBRANCH  14  15
ENDBRANCH   1  14
TORSDOF 7
