REMARK  Name = ZINC000069616927
REMARK                            x       y       z     vdW  Elec       q    Type
REMARK                         _______ _______ _______ _____ _____    ______ ____
ROOT
ATOM      1  C   LIG    1       -1.412  -0.526   0.013  0.00  0.00    +0.066 A 
ATOM      2  N   LIG    1       -2.405   0.318   0.021  0.00  0.00    -0.173 NA
ATOM      3  N   LIG    1       -3.637  -0.034   0.030  0.00  0.00    -0.225 N 
ATOM      4  C   LIG    1       -4.005  -1.331   0.031  0.00  0.00    +0.285 A 
ATOM      5  O   LIG    1       -5.183  -1.646   0.039  0.00  0.00    -0.265 OA
ATOM      6  C   LIG    1       -2.954  -2.357   0.022  0.00  0.00    +0.122 A 
ATOM      7  C   LIG    1       -1.634  -1.907   0.007  0.00  0.00    -0.002 A 
ENDROOT
BRANCH   6   8
ATOM      8  C   LIG    1       -3.270  -3.753   0.022  0.00  0.00    +0.105 C 
ATOM      9  N   LIG    1       -3.521  -4.862   0.022  0.00  0.00    -0.191 NA
ENDBRANCH   6   8
BRANCH   7  10
ATOM     10  C   LIG    1       -0.483  -2.880  -0.003  0.00  0.00    +0.035 C 
ATOM     11  C   LIG    1       -0.027  -3.115  -1.445  0.00  0.00    +0.009 C 
ENDBRANCH   7  10
BRANCH   1  12
ATOM     12  C   LIG    1        0.002  -0.004   0.002  0.00  0.00    +0.054 C 
ATOM     13  C   LIG    1       -0.019   1.526   0.010  0.00  0.00    +0.010 C 
ENDBRANCH   1  12
BRANCH   3  14
ATOM     14  C   LIG    1       -4.674   1.000   0.040  0.00  0.00    +0.183 C 
BRANCH  14  15
ATOM     15  C   LIG    1       -5.024   1.359   1.485  0.00  0.00    +0.166 C 
BRANCH  15  16
ATOM     16  C   LIG    1       -6.175   2.332   1.497  0.00  0.00    -0.015 A 
ATOM     17  C   LIG    1       -7.458   1.882   1.749  0.00  0.00    +0.047 A 
ATOM     18  C   LIG    1       -8.514   2.775   1.765  0.00  0.00    +0.159 A 
ATOM     19  F   LIG    1       -9.767   2.337   2.016  0.00  0.00    -0.202 F 
ATOM     20  C   LIG    1       -8.286   4.121   1.517  0.00  0.00    +0.158 A 
ATOM     21  F   LIG    1       -9.316   4.994   1.527  0.00  0.00    -0.202 F 
ATOM     22  C   LIG    1       -7.002   4.567   1.260  0.00  0.00    +0.041 A 
ATOM     23  C   LIG    1       -5.948   3.673   1.250  0.00  0.00    +0.009 A 
ENDBRANCH  15  16
BRANCH  15  24
ATOM     24  O   LIG    1       -3.890   1.955   2.116  0.00  0.00    -0.385 OA
ATOM     25  H   LIG    1       -3.582   2.766   1.688  0.00  0.00    +0.210 HD
ENDBRANCH  15  24
ENDBRANCH  14  15
ENDBRANCH   3  14
TORSDOF 7
