REMARK  Name = ZINC000058192601
REMARK                            x       y       z     vdW  Elec       q    Type
REMARK                         _______ _______ _______ _____ _____    ______ ____
ROOT
ATOM      1  C   LIG    1       -2.227  -0.140  -1.076  0.00  0.00    +0.234 C 
ATOM      2  N   LIG    1       -2.307   1.156  -1.438  0.00  0.00    -0.310 N 
ATOM      3  H   LIG    1       -1.911   1.842  -0.878  0.00  0.00    +0.149 HD
ATOM      4  O   LIG    1       -2.777  -0.991  -1.742  0.00  0.00    -0.274 OA
ENDROOT
BRANCH   1   5
ATOM      5  C   LIG    1       -1.454  -0.531   0.157  0.00  0.00    +0.164 C 
BRANCH   5   6
ATOM      6  N   LIG    1       -1.774  -1.915   0.516  0.00  0.00    -0.290 N 
ATOM      7  C   LIG    1       -2.374  -2.322   1.792  0.00  0.00    +0.109 C 
ATOM      8  C   LIG    1       -2.918  -3.748   1.554  0.00  0.00    +0.028 C 
ATOM      9  C   LIG    1       -2.014  -4.244   0.403  0.00  0.00    +0.097 C 
ATOM     10  C   LIG    1       -1.561  -2.974  -0.284  0.00  0.00    +0.216 C 
ATOM     11  O   LIG    1       -1.071  -2.920  -1.392  0.00  0.00    -0.276 OA
ENDBRANCH   5   6
BRANCH   5  12
ATOM     12  C   LIG    1        0.045  -0.409  -0.121  0.00  0.00    +0.012 C 
ATOM     13  C   LIG    1        0.831  -0.931   1.084  0.00  0.00    +0.009 C 
ATOM     14  C   LIG    1        0.402   1.058  -0.365  0.00  0.00    +0.009 C 
ENDBRANCH   5  12
ENDBRANCH   1   5
BRANCH   2  15
ATOM     15  C   LIG    1       -2.993   1.528  -2.678  0.00  0.00    +0.139 C 
BRANCH  15  16
ATOM     16  C   LIG    1       -2.941   3.025  -2.851  0.00  0.00    -0.030 A 
ATOM     17  C   LIG    1       -3.946   3.815  -2.323  0.00  0.00    +0.007 A 
ATOM     18  C   LIG    1       -3.901   5.187  -2.479  0.00  0.00    +0.028 A 
ATOM     19  C   LIG    1       -2.846   5.772  -3.166  0.00  0.00    +0.065 A 
ATOM     20  C   LIG    1       -1.839   4.976  -3.695  0.00  0.00    +0.028 A 
ATOM     21  C   LIG    1       -1.887   3.605  -3.531  0.00  0.00    +0.007 A 
BRANCH  19  22
ATOM     22  N   LIG    1       -2.798   7.164  -3.325  0.00  0.00    -0.240 N 
ATOM     23  N   LIG    1       -3.742   8.082  -2.846  0.00  0.00    -0.175 NA
ATOM     24  C   LIG    1       -3.353   9.284  -3.187  0.00  0.00    +0.135 A 
ATOM     25  C   LIG    1       -2.156   9.171  -3.902  0.00  0.00    +0.041 A 
ATOM     26  C   LIG    1       -1.836   7.858  -3.974  0.00  0.00    +0.114 A 
ENDBRANCH  19  22
ENDBRANCH  15  16
ENDBRANCH   2  15
TORSDOF 6
