REMARK  Name = ZINC000012971474
REMARK                            x       y       z     vdW  Elec       q    Type
REMARK                         _______ _______ _______ _____ _____    ______ ____
ROOT
ATOM      1  C   LIG    1       -7.323  -2.701  -1.015  0.00  0.00    +0.172 C 
ENDROOT
BRANCH   1   2
ATOM      2  O   LIG    1       -7.269  -3.984  -0.390  0.00  0.00    -0.387 OA
ATOM      3  H   LIG    1       -6.791  -4.652  -0.902  0.00  0.00    +0.210 HD
ENDBRANCH   1   2
BRANCH   1   4
ATOM      4  C   LIG    1       -5.901  -2.176  -1.227  0.00  0.00    +0.262 C 
BRANCH   4   5
ATOM      5  O   LIG    1       -5.282  -1.953   0.042  0.00  0.00    -0.489 OA
BRANCH   5   6
ATOM      6  C   LIG    1       -4.007  -1.483   0.032  0.00  0.00    +0.121 A 
ATOM      7  C   LIG    1       -3.346  -1.244   1.228  0.00  0.00    +0.046 A 
ATOM      8  C   LIG    1       -2.050  -0.766   1.216  0.00  0.00    +0.007 A 
ATOM      9  C   LIG    1       -1.412  -0.526   0.013  0.00  0.00    -0.047 A 
ATOM     10  C   LIG    1       -2.071  -0.758  -1.180  0.00  0.00    +0.007 A 
ATOM     11  C   LIG    1       -3.365  -1.241  -1.173  0.00  0.00    +0.046 A 
BRANCH   9  12
ATOM     12  C   LIG    1        0.002  -0.004   0.002  0.00  0.00    +0.032 C 
ATOM     13  C   LIG    1       -0.019   1.526   0.010  0.00  0.00    +0.009 C 
ENDBRANCH   9  12
ENDBRANCH   5   6
ENDBRANCH   4   5
ENDBRANCH   1   4
BRANCH   1  14
ATOM     14  C   LIG    1       -8.028  -2.821  -2.368  0.00  0.00    +0.161 C 
BRANCH  14  15
ATOM     15  N   LIG    1       -9.425  -3.209  -2.157  0.00  0.00    -0.289 N 
ATOM     16  C   LIG    1      -10.496  -2.335  -1.984  0.00  0.00    +0.070 A 
ATOM     17  C   LIG    1      -11.637  -3.124  -1.819  0.00  0.00    +0.070 A 
ATOM     18  C   LIG    1      -12.871  -2.521  -1.627  0.00  0.00    +0.028 A 
ATOM     19  C   LIG    1      -12.967  -1.143  -1.606  0.00  0.00    +0.002 A 
ATOM     20  C   LIG    1      -11.837  -0.362  -1.775  0.00  0.00    +0.002 A 
ATOM     21  N   LIG    1      -11.222  -4.452  -1.889  0.00  0.00    -0.295 N 
ATOM     22  C   LIG    1      -12.087  -5.628  -1.763  0.00  0.00    +0.154 C 
ATOM     23  C   LIG    1      -10.604  -0.954  -1.966  0.00  0.00    +0.028 A 
ATOM     24  C   LIG    1       -9.892  -4.470  -2.092  0.00  0.00    +0.330 A 
ATOM     25  O   LIG    1       -9.213  -5.475  -2.201  0.00  0.00    -0.246 OA
ENDBRANCH  14  15
ENDBRANCH   1  14
TORSDOF 7
