REMARK  Name = ZINC000082166298
REMARK                            x       y       z     vdW  Elec       q    Type
REMARK                         _______ _______ _______ _____ _____    ______ ____
ROOT
ATOM      1  C   LIG    1       -0.002  -1.321  -4.789  0.00  0.00    +0.058 C 
ATOM      2  C   LIG    1       -1.440  -1.455  -5.295  0.00  0.00    +0.030 C 
ATOM      3  C   LIG    1       -1.447  -1.383  -6.825  0.00  0.00    +0.108 C 
ATOM      4  N   LIG    1       -0.526  -2.400  -7.350  0.00  0.00    -0.301 N 
ATOM      5  C   LIG    1        0.860  -2.419  -6.861  0.00  0.00    +0.108 C 
ATOM      6  C   LIG    1       -0.943  -3.299  -8.263  0.00  0.00    +0.217 C 
ATOM      7  O   LIG    1       -0.173  -4.134  -8.689  0.00  0.00    -0.276 OA
ATOM      8  C   LIG    1        0.841  -2.478  -5.330  0.00  0.00    +0.030 C 
ENDROOT
BRANCH   1   9
ATOM      9  C   LIG    1        0.005  -1.357  -3.282  0.00  0.00    +0.111 A 
ATOM     10  N   LIG    1       -0.006  -0.308  -2.512  0.00  0.00    -0.232 NA
ATOM     11  C   LIG    1        0.006  -0.697  -1.211  0.00  0.00    +0.092 A 
ATOM     12  C   LIG    1        0.002  -0.004   0.002  0.00  0.00    -0.023 A 
ATOM     13  C   LIG    1        0.023  -0.695   1.181  0.00  0.00    +0.005 A 
ATOM     14  C   LIG    1        0.037  -2.082   1.188  0.00  0.00    +0.002 A 
ATOM     15  C   LIG    1        0.040  -2.787   0.003  0.00  0.00    +0.028 A 
ATOM     16  C   LIG    1       -0.018   1.503   0.010  0.00  0.00    +0.046 C 
ATOM     17  C   LIG    1        0.025  -2.102  -1.204  0.00  0.00    +0.066 A 
ATOM     18  N   LIG    1        0.024  -2.490  -2.529  0.00  0.00    -0.342 N 
ATOM     19  H   LIG    1        0.035  -3.401  -2.862  0.00  0.00    +0.167 HD
ENDBRANCH   1   9
BRANCH   6  20
ATOM     20  C   LIG    1       -2.367  -3.268  -8.756  0.00  0.00    +0.119 C 
BRANCH  20  21
ATOM     21  C   LIG    1       -2.578  -4.386  -9.779  0.00  0.00    +0.154 C 
BRANCH  21  22
ATOM     22  N   LIG    1       -3.962  -4.355 -10.257  0.00  0.00    -0.252 N 
ATOM     23  N   LIG    1       -5.126  -4.406  -9.472  0.00  0.00    -0.158 NA
ATOM     24  C   LIG    1       -6.139  -4.350 -10.296  0.00  0.00    +0.244 A 
ATOM     25  N   LIG    1       -5.679  -4.276 -11.544  0.00  0.00    -0.223 NA
ATOM     26  C   LIG    1       -4.371  -4.278 -11.536  0.00  0.00    +0.219 A 
ENDBRANCH  21  22
ENDBRANCH  20  21
ENDBRANCH   6  20
TORSDOF 4
