REMARK  Name = ZINC000095994098
REMARK                            x       y       z     vdW  Elec       q    Type
REMARK                         _______ _______ _______ _____ _____    ______ ____
ROOT
ATOM      1  C   LIG    1        2.907   0.819  -4.739  0.00  0.00    +0.123 C 
ATOM      2  C   LIG    1        3.647   1.810  -3.832  0.00  0.00    +0.026 C 
ATOM      3  C   LIG    1        5.104   1.894  -4.295  0.00  0.00    +0.097 C 
ATOM      4  C   LIG    1        5.157   2.102  -5.781  0.00  0.00    +0.216 C 
ATOM      5  O   LIG    1        6.191   2.509  -6.267  0.00  0.00    -0.276 OA
ATOM      6  N   LIG    1        4.128   1.862  -6.595  0.00  0.00    -0.297 N 
ATOM      7  C   LIG    1        4.330   2.059  -8.033  0.00  0.00    +0.132 C 
ATOM      8  C   LIG    1        2.816   1.412  -6.146  0.00  0.00    +0.123 C 
ENDROOT
BRANCH   8   9
ATOM      9  C   LIG    1        2.296   0.365  -7.097  0.00  0.00    +0.011 A 
ATOM     10  C   LIG    1        1.019   0.248  -7.532  0.00  0.00    +0.113 A 
ATOM     11  N   LIG    1        0.965  -0.811  -8.366  0.00  0.00    -0.274 N 
ATOM     12  N   LIG    1        2.250  -1.363  -8.448  0.00  0.00    -0.180 NA
ATOM     13  C   LIG    1       -0.228  -1.297  -9.065  0.00  0.00    +0.172 C 
ATOM     14  C   LIG    1        3.048  -0.653  -7.691  0.00  0.00    +0.139 A 
ENDBRANCH   8   9
BRANCH   1  15
ATOM     15  C   LIG    1        1.520   0.580  -4.201  0.00  0.00    +0.313 C 
ATOM     16  O   LIG    1        0.555   0.850  -4.876  0.00  0.00    -0.250 OA
BRANCH  15  17
ATOM     17  O   LIG    1        1.356   0.067  -2.971  0.00  0.00    -0.459 OA
BRANCH  17  18
ATOM     18  C   LIG    1       -0.008  -0.137  -2.518  0.00  0.00    +0.275 C 
BRANCH  18  19
ATOM     19  C   LIG    1        0.006  -0.715  -1.126  0.00  0.00    +0.030 A 
ATOM     20  C   LIG    1        0.002  -0.004   0.002  0.00  0.00    -0.037 A 
ATOM     21  C   LIG    1        0.024  -0.755   1.165  0.00  0.00    +0.011 A 
ATOM     22  C   LIG    1        0.035  -2.076   0.981  0.00  0.00    +0.046 A 
ATOM     23  C   LIG    1       -0.018   1.503   0.010  0.00  0.00    +0.045 C 
ATOM     24  S   LIG    1        0.031  -2.431  -0.742  0.00  0.00    -0.098 S 
ENDBRANCH  18  19
ENDBRANCH  17  18
ENDBRANCH  15  17
ENDBRANCH   1  15
TORSDOF 5
