REMARK  Name = ZINC000095994964
REMARK                            x       y       z     vdW  Elec       q    Type
REMARK                         _______ _______ _______ _____ _____    ______ ____
ROOT
ATOM      1  N   LIG    1       -1.518  -3.636   2.632  0.00  0.00    -0.176 NA
ATOM      2  C   LIG    1       -2.240  -2.871   3.658  0.00  0.00    +0.109 C 
ATOM      3  C   LIG    1       -2.824  -3.848   4.683  0.00  0.00    +0.017 C 
ATOM      4  C   LIG    1       -3.679  -4.891   3.958  0.00  0.00    +0.008 C 
ATOM      5  C   LIG    1       -2.804  -5.680   2.982  0.00  0.00    +0.026 C 
ATOM      6  C   LIG    1       -2.222  -4.720   1.933  0.00  0.00    +0.114 C 
ENDROOT
BRANCH   1   7
ATOM      7  S   LIG    1        0.058  -3.280   2.267  0.00  0.00    +0.067 S 
ATOM      8  O   LIG    1        0.599  -2.636   3.411  0.00  0.00    -0.152 OA
ATOM      9  O   LIG    1        0.615  -4.460   1.702  0.00  0.00    -0.152 OA
BRANCH   7  10
ATOM     10  C   LIG    1        0.035  -2.076   0.981  0.00  0.00    +0.143 A 
ATOM     11  C   LIG    1        0.024  -0.755   1.165  0.00  0.00    +0.040 A 
ATOM     12  C   LIG    1        0.002  -0.004   0.002  0.00  0.00    -0.039 A 
ATOM     13  C   LIG    1       -0.018   1.503   0.010  0.00  0.00    +0.044 C 
ATOM     14  C   LIG    1        0.006  -0.715  -1.126  0.00  0.00    -0.008 A 
ATOM     15  C   LIG    1       -0.008  -0.137  -2.518  0.00  0.00    +0.052 C 
ATOM     16  S   LIG    1        0.031  -2.431  -0.742  0.00  0.00    -0.074 S 
ENDBRANCH   7  10
ENDBRANCH   1   7
BRANCH   5  17
ATOM     17  C   LIG    1       -3.653  -6.744   2.283  0.00  0.00    +0.150 C 
BRANCH  17  18
ATOM     18  N   LIG    1       -4.116  -7.725   3.268  0.00  0.00    -0.252 N 
ATOM     19  N   LIG    1       -3.319  -8.471   4.151  0.00  0.00    -0.158 NA
ATOM     20  C   LIG    1       -4.130  -9.218   4.852  0.00  0.00    +0.244 A 
ATOM     21  N   LIG    1       -5.381  -8.990   4.455  0.00  0.00    -0.223 NA
ATOM     22  C   LIG    1       -5.387  -8.093   3.502  0.00  0.00    +0.219 A 
ENDBRANCH  17  18
ENDBRANCH   5  17
TORSDOF 4
