REMARK  Name = ZINC000042302072
REMARK                            x       y       z     vdW  Elec       q    Type
REMARK                         _______ _______ _______ _____ _____    ______ ____
ROOT
ATOM      1  N   LIG    1        1.410  -0.332   3.051  0.00  0.00    -0.284 N 
ATOM      2  C   LIG    1        2.058  -1.396   3.565  0.00  0.00    +0.302 C 
ATOM      3  N   LIG    1        3.329  -1.268   3.993  0.00  0.00    -0.296 N 
ATOM      4  H   LIG    1        3.778  -0.410   3.932  0.00  0.00    +0.150 HD
ATOM      5  O   LIG    1        1.495  -2.471   3.642  0.00  0.00    -0.253 OA
ATOM      6  C   LIG    1        2.088   0.964   2.958  0.00  0.00    +0.134 C 
ENDROOT
BRANCH   3   7
ATOM      7  C   LIG    1        4.034  -2.425   4.552  0.00  0.00    +0.153 C 
BRANCH   7   8
ATOM      8  C   LIG    1        5.450  -2.013   4.958  0.00  0.00    +0.228 C 
ATOM      9  C   LIG    1        6.198  -3.224   5.530  0.00  0.00    +0.275 C 
ATOM     10  O   LIG    1        7.520  -2.808   5.886  0.00  0.00    -0.485 OA
ATOM     11  C   LIG    1        8.192  -2.057   4.971  0.00  0.00    +0.162 A 
ATOM     12  C   LIG    1        9.568  -1.926   5.077  0.00  0.00    +0.049 A 
ATOM     13  C   LIG    1       10.264  -1.164   4.157  0.00  0.00    +0.004 A 
ATOM     14  C   LIG    1        9.590  -0.531   3.129  0.00  0.00    +0.004 A 
ATOM     15  C   LIG    1        8.218  -0.659   3.018  0.00  0.00    +0.049 A 
ATOM     16  C   LIG    1        7.514  -1.423   3.936  0.00  0.00    +0.163 A 
ATOM     17  O   LIG    1        6.165  -1.545   3.809  0.00  0.00    -0.480 OA
ENDBRANCH   7   8
ENDBRANCH   3   7
BRANCH   1  18
ATOM     18  C   LIG    1        0.028  -0.470   2.586  0.00  0.00    +0.149 C 
BRANCH  18  19
ATOM     19  C   LIG    1        0.024  -0.857   1.129  0.00  0.00    +0.034 A 
ATOM     20  C   LIG    1        0.034  -2.103   0.597  0.00  0.00    +0.139 A 
ATOM     21  C   LIG    1        0.056  -3.406   1.353  0.00  0.00    +0.089 C 
ATOM     22  O   LIG    1        0.026  -1.947  -0.734  0.00  0.00    -0.359 OA
ATOM     23  N   LIG    1        0.008  -0.778  -1.045  0.00  0.00    -0.083 NA
ATOM     24  C   LIG    1        0.002  -0.004   0.002  0.00  0.00    +0.085 A 
ATOM     25  C   LIG    1       -0.018   1.503   0.010  0.00  0.00    +0.069 C 
ENDBRANCH  18  19
ENDBRANCH   1  18
TORSDOF 4
