REMARK  Name = ZINC000042688118
REMARK                            x       y       z     vdW  Elec       q    Type
REMARK                         _______ _______ _______ _____ _____    ______ ____
ROOT
ATOM      1  C   LIG    1        2.426  -1.351   2.025  0.00  0.00    +0.132 C 
ATOM      2  N   LIG    1        1.339  -1.469   1.051  0.00  0.00    -0.299 N 
ATOM      3  C   LIG    1        0.150  -0.882   1.294  0.00  0.00    +0.226 C 
ATOM      4  O   LIG    1       -0.777  -1.050   0.530  0.00  0.00    -0.275 OA
ENDROOT
BRANCH   2   5
ATOM      5  C   LIG    1        1.543  -2.224  -0.187  0.00  0.00    +0.098 C 
ATOM      6  C   LIG    1        1.947  -3.673   0.140  0.00  0.00    +0.046 C 
ATOM      7  C   LIG    1        2.481  -4.339  -1.144  0.00  0.00    +0.168 C 
ATOM      8  S   LIG    1        3.159  -2.967  -2.145  0.00  0.00    -0.029 S 
ATOM      9  O   LIG    1        4.574  -3.085  -2.207  0.00  0.00    -0.174 OA
ATOM     10  O   LIG    1        2.406  -2.841  -3.344  0.00  0.00    -0.174 OA
ATOM     11  C   LIG    1        2.712  -1.609  -0.998  0.00  0.00    +0.188 C 
ENDBRANCH   2   5
BRANCH   3  12
ATOM     12  C   LIG    1       -0.027  -0.016   2.515  0.00  0.00    +0.072 C 
ATOM     13  C   LIG    1        0.069  -0.791   3.839  0.00  0.00    +0.021 C 
ATOM     14  C   LIG    1       -1.446  -1.027   3.721  0.00  0.00    +0.003 C 
ATOM     15  C   LIG    1       -1.499   0.253   2.871  0.00  0.00    +0.021 C 
BRANCH  12  16
ATOM     16  C   LIG    1        0.824   1.227   2.479  0.00  0.00    -0.031 A 
ATOM     17  C   LIG    1        1.689   1.502   3.522  0.00  0.00    +0.005 A 
ATOM     18  C   LIG    1        2.471   2.642   3.490  0.00  0.00    +0.002 A 
ATOM     19  C   LIG    1        2.388   3.507   2.416  0.00  0.00    +0.020 A 
ATOM     20  C   LIG    1        1.522   3.233   1.372  0.00  0.00    +0.041 A 
ATOM     21 CL   LIG    1        1.417   4.319   0.022  0.00  0.00    -0.084 Cl
ATOM     22  C   LIG    1        0.744   2.089   1.402  0.00  0.00    +0.024 A 
ENDBRANCH  12  16
ENDBRANCH   3  12
TORSDOF 3
