REMARK  Name = ZINC000095991221
REMARK                            x       y       z     vdW  Elec       q    Type
REMARK                         _______ _______ _______ _____ _____    ______ ____
ROOT
ATOM      1  C   LIG    1       -0.141  -3.165   0.017  0.00  0.00    +0.112 A 
ATOM      2  C   LIG    1       -0.573  -3.907   1.099  0.00  0.00    +0.029 A 
ATOM      3  C   LIG    1       -1.818  -4.509   1.073  0.00  0.00    +0.005 A 
ATOM      4  C   LIG    1       -2.634  -4.372  -0.034  0.00  0.00    +0.040 A 
ATOM      5  C   LIG    1       -2.207  -3.630  -1.121  0.00  0.00    +0.146 A 
ATOM      6  F   LIG    1       -3.005  -3.495  -2.203  0.00  0.00    -0.203 F 
ATOM      7  C   LIG    1       -0.959  -3.019  -1.095  0.00  0.00    +0.094 A 
ENDROOT
BRANCH   7   8
ATOM      8  N   LIG    1       -0.523  -2.266  -2.193  0.00  0.00    -0.280 N 
ATOM      9  H   LIG    1       -0.487  -1.298  -2.134  0.00  0.00    +0.155 HD
ATOM     10  C   LIG    1       -0.154  -2.886  -3.331  0.00  0.00    +0.239 C 
ATOM     11  O   LIG    1       -0.283  -4.087  -3.437  0.00  0.00    -0.273 OA
BRANCH  10  12
ATOM     12  C   LIG    1        0.419  -2.087  -4.473  0.00  0.00    +0.239 C 
BRANCH  12  13
ATOM     13  N   LIG    1        0.738  -2.984  -5.586  0.00  0.00    -0.259 N 
ATOM     14  N   LIG    1        1.958  -3.643  -5.790  0.00  0.00    -0.176 NA
ATOM     15  C   LIG    1        1.862  -4.351  -6.885  0.00  0.00    +0.060 A 
ATOM     16  C   LIG    1        0.580  -4.168  -7.413  0.00  0.00    +0.047 A 
ATOM     17  C   LIG    1        2.945  -5.217  -7.476  0.00  0.00    +0.067 C 
ATOM     18  C   LIG    1       -0.092  -3.328  -6.592  0.00  0.00    +0.037 A 
ATOM     19  C   LIG    1       -1.511  -2.852  -6.775  0.00  0.00    +0.065 C 
ENDBRANCH  12  13
ENDBRANCH  10  12
ENDBRANCH   7   8
BRANCH   1  20
ATOM     20  S   LIG    1        1.445  -2.398   0.052  0.00  0.00    -0.001 S 
ATOM     21  O   LIG    1        1.971  -2.738   1.327  0.00  0.00    -0.169 OA
ATOM     22  O   LIG    1        1.188  -1.045  -0.298  0.00  0.00    -0.169 OA
BRANCH  20  23
ATOM     23  C   LIG    1        2.378  -3.229  -1.264  0.00  0.00    +0.168 C 
ATOM     24  C   LIG    1        3.791  -2.644  -1.335  0.00  0.00    +0.028 C 
ENDBRANCH  20  23
ENDBRANCH   1  20
TORSDOF 5
