REMARK  Name = ZINC000188270527
REMARK                            x       y       z     vdW  Elec       q    Type
REMARK                         _______ _______ _______ _____ _____    ______ ____
ROOT
ATOM      1  N   LIG    1        0.038  -2.820   2.384  0.00  0.00    -0.259 N 
ATOM      2  C   LIG    1       -0.914  -2.760   3.365  0.00  0.00    +0.198 A 
ATOM      3  N   LIG    1       -0.529  -3.534   4.351  0.00  0.00    -0.120 NA
ATOM      4  N   LIG    1        0.700  -4.107   3.997  0.00  0.00    -0.112 NA
ATOM      5  C   LIG    1        1.025  -3.670   2.806  0.00  0.00    +0.225 A 
ENDROOT
BRANCH   1   6
ATOM      6  C   LIG    1        0.005  -2.137   1.159  0.00  0.00    +0.052 A 
ATOM      7  C   LIG    1        0.219  -0.766   1.122  0.00  0.00    +0.029 A 
ATOM      8  C   LIG    1        0.181  -0.095  -0.085  0.00  0.00    -0.048 A 
ATOM      9  C   LIG    1        0.408   1.394  -0.126  0.00  0.00    +0.044 C 
ATOM     10  C   LIG    1       -0.059  -0.789  -1.256  0.00  0.00    +0.003 A 
ATOM     11  C   LIG    1       -0.266  -2.156  -1.223  0.00  0.00    +0.002 A 
ATOM     12  C   LIG    1       -0.235  -2.832  -0.019  0.00  0.00    +0.026 A 
ENDBRANCH   1   6
BRANCH   5  13
ATOM     13  N   LIG    1        2.173  -4.003   2.099  0.00  0.00    -0.295 N 
ATOM     14  C   LIG    1        3.099  -5.030   2.599  0.00  0.00    +0.136 C 
ATOM     15  C   LIG    1        4.517  -4.458   2.586  0.00  0.00    +0.179 C 
ATOM     16  O   LIG    1        4.799  -3.925   1.289  0.00  0.00    -0.377 OA
ATOM     17  C   LIG    1        3.951  -2.840   0.905  0.00  0.00    +0.179 C 
ATOM     18  C   LIG    1        2.502  -3.334   0.830  0.00  0.00    +0.136 C 
ENDBRANCH   5  13
BRANCH   2  19
ATOM     19  S   LIG    1       -2.397  -1.810   3.314  0.00  0.00    -0.080 S 
BRANCH  19  20
ATOM     20  C   LIG    1       -3.179  -2.186   4.906  0.00  0.00    +0.082 C 
ATOM     21  C   LIG    1       -2.360  -1.586   6.065  0.00  0.00    +0.174 C 
ATOM     22  O   LIG    1       -3.195  -0.608   6.713  0.00  0.00    -0.379 OA
ATOM     23  C   LIG    1       -4.564  -1.004   6.483  0.00  0.00    +0.161 C 
ATOM     24  C   LIG    1       -4.558  -1.490   5.011  0.00  0.00    +0.045 C 
ENDBRANCH  19  20
ENDBRANCH   2  19
TORSDOF 4
