REMARK  Name = ZINC000095992541
REMARK                            x       y       z     vdW  Elec       q    Type
REMARK                         _______ _______ _______ _____ _____    ______ ____
ROOT
ATOM      1  O   LIG    1       -0.314   0.377  -0.761  0.00  0.00    -0.274 OA
ATOM      2  C   LIG    1       -0.395   1.522  -0.368  0.00  0.00    +0.234 C 
ATOM      3  N   LIG    1        0.724   2.244  -0.160  0.00  0.00    -0.284 N 
ATOM      4  H   LIG    1        0.659   3.178   0.090  0.00  0.00    +0.155 HD
ENDROOT
BRANCH   3   5
ATOM      5  C   LIG    1        1.980   1.645  -0.306  0.00  0.00    +0.039 A 
ATOM      6  C   LIG    1        3.027   2.011   0.529  0.00  0.00    +0.061 A 
ATOM      7  C   LIG    1        4.268   1.418   0.384  0.00  0.00    +0.128 A 
ATOM      8  F   LIG    1        5.286   1.774   1.197  0.00  0.00    -0.205 F 
ATOM      9  C   LIG    1        4.467   0.459  -0.595  0.00  0.00    +0.076 A 
ATOM     10  C   LIG    1        3.425   0.092  -1.430  0.00  0.00    +0.128 A 
ATOM     11  F   LIG    1        3.622  -0.844  -2.384  0.00  0.00    -0.205 F 
ATOM     12  C   LIG    1        2.181   0.679  -1.284  0.00  0.00    +0.061 A 
ENDBRANCH   3   5
BRANCH   2  13
ATOM     13  C   LIG    1       -1.747   2.138  -0.117  0.00  0.00    +0.144 C 
ATOM     14  N   LIG    1       -2.712   1.083   0.216  0.00  0.00    -0.287 NA
ATOM     15  C   LIG    1       -4.035   1.647   0.509  0.00  0.00    +0.085 C 
ATOM     16  C   LIG    1       -4.568   2.372  -0.729  0.00  0.00    +0.015 C 
ATOM     17  C   LIG    1       -3.594   3.486  -1.121  0.00  0.00    +0.003 C 
ATOM     18  C   LIG    1       -2.211   2.878  -1.374  0.00  0.00    +0.028 C 
BRANCH  14  19
ATOM     19  C   LIG    1       -2.229   0.263   1.335  0.00  0.00    +0.146 C 
BRANCH  19  20
ATOM     20  C   LIG    1       -1.844   1.171   2.504  0.00  0.00    +0.264 C 
ATOM     21  O   LIG    1       -2.942   2.035   2.841  0.00  0.00    -0.348 OA
ATOM     22  C   LIG    1       -2.380   3.300   3.236  0.00  0.00    +0.191 C 
ATOM     23  C   LIG    1       -0.855   3.132   3.064  0.00  0.00    +0.191 C 
ATOM     24  O   LIG    1       -0.754   2.037   2.122  0.00  0.00    -0.348 OA
ENDBRANCH  19  20
ENDBRANCH  14  19
ENDBRANCH   2  13
TORSDOF 4
