REMARK  Name = ZINC000082135053
REMARK                            x       y       z     vdW  Elec       q    Type
REMARK                         _______ _______ _______ _____ _____    ______ ____
ROOT
ATOM      1  C   LIG    1        0.435  -3.834  -0.305  0.00  0.00    +0.177 C 
ATOM      2  C   LIG    1        1.631  -4.448   0.428  0.00  0.00    +0.063 C 
ATOM      3  C   LIG    1        1.273  -5.866   0.883  0.00  0.00    +0.111 C 
ATOM      4  N   LIG    1        0.820  -6.636  -0.283  0.00  0.00    -0.300 N 
ATOM      5  C   LIG    1        1.389  -7.820  -0.588  0.00  0.00    +0.234 C 
ATOM      6  O   LIG    1        1.091  -8.389  -1.617  0.00  0.00    -0.274 OA
ATOM      7  C   LIG    1       -0.265  -6.092  -1.111  0.00  0.00    +0.111 C 
ATOM      8  C   LIG    1        0.110  -4.671  -1.544  0.00  0.00    +0.063 C 
ENDROOT
BRANCH   5   9
ATOM      9  C   LIG    1        2.395  -8.436   0.350  0.00  0.00    +0.154 C 
ATOM     10  N   LIG    1        2.046  -9.837   0.558  0.00  0.00    -0.285 NA
ATOM     11  C   LIG    1        3.081 -10.809   0.152  0.00  0.00    +0.154 C 
ATOM     12  S   LIG    1        4.628  -9.818   0.260  0.00  0.00    -0.143 S 
ATOM     13  C   LIG    1        0.752 -10.155  -0.062  0.00  0.00    +0.106 C 
ATOM     14  C   LIG    1        3.809  -8.247  -0.244  0.00  0.00    +0.098 C 
ENDBRANCH   5   9
BRANCH   1  15
ATOM     15  O   LIG    1        0.754  -2.499  -0.702  0.00  0.00    -0.485 OA
BRANCH  15  16
ATOM     16  C   LIG    1       -0.288  -1.646  -0.893  0.00  0.00    +0.162 A 
ATOM     17  C   LIG    1       -1.589  -2.116  -0.831  0.00  0.00    +0.049 A 
ATOM     18  C   LIG    1       -2.648  -1.247  -1.025  0.00  0.00    +0.004 A 
ATOM     19  C   LIG    1       -2.410   0.091  -1.275  0.00  0.00    +0.004 A 
ATOM     20  C   LIG    1       -1.113   0.568  -1.332  0.00  0.00    +0.049 A 
ATOM     21  C   LIG    1       -0.049  -0.297  -1.139  0.00  0.00    +0.162 A 
BRANCH  21  22
ATOM     22  O   LIG    1        1.228   0.169  -1.195  0.00  0.00    -0.491 OA
ATOM     23  C   LIG    1        1.397   1.565  -1.452  0.00  0.00    +0.277 C 
ENDBRANCH  21  22
ENDBRANCH  15  16
ENDBRANCH   1  15
TORSDOF 4
