REMARK  Name = ZINC000058191571
REMARK                            x       y       z     vdW  Elec       q    Type
REMARK                         _______ _______ _______ _____ _____    ______ ____
ROOT
ATOM      1  C   LIG    1       -6.764  -4.516   0.052  0.00  0.00    +0.181 C 
ENDROOT
BRANCH   1   2
ATOM      2  N   LIG    1       -6.269  -5.889  -0.115  0.00  0.00    -0.283 NA
ATOM      3  C   LIG    1       -5.812  -6.443   1.165  0.00  0.00    +0.085 C 
ATOM      4  C   LIG    1       -5.171  -7.813   0.930  0.00  0.00    +0.015 C 
ATOM      5  C   LIG    1       -6.199  -8.748   0.285  0.00  0.00    +0.003 C 
ATOM      6  C   LIG    1       -6.694  -8.124  -1.023  0.00  0.00    +0.028 C 
ATOM      7  C   LIG    1       -7.291  -6.745  -0.731  0.00  0.00    +0.144 C 
BRANCH   7   8
ATOM      8  C   LIG    1       -7.761  -6.119  -2.018  0.00  0.00    +0.233 C 
ATOM      9  N   LIG    1       -9.010  -6.358  -2.467  0.00  0.00    -0.300 N 
ATOM     10  C   LIG    1      -10.047  -7.116  -1.752  0.00  0.00    +0.108 C 
ATOM     11  C   LIG    1      -11.295  -7.152  -2.658  0.00  0.00    +0.020 C 
ATOM     12  C   LIG    1      -10.706  -6.898  -4.071  0.00  0.00    +0.020 C 
ATOM     13  C   LIG    1       -9.563  -5.899  -3.754  0.00  0.00    +0.108 C 
ATOM     14  O   LIG    1       -7.018  -5.399  -2.650  0.00  0.00    -0.274 OA
ENDBRANCH   7   8
ENDBRANCH   1   2
BRANCH   1  15
ATOM     15  C   LIG    1       -5.601  -3.590   0.303  0.00  0.00    +0.231 C 
ATOM     16  N   LIG    1       -5.817  -2.272   0.488  0.00  0.00    -0.284 N 
ATOM     17  H   LIG    1       -6.724  -1.931   0.529  0.00  0.00    +0.155 HD
ATOM     18  O   LIG    1       -4.472  -4.030   0.339  0.00  0.00    -0.274 OA
BRANCH  16  19
ATOM     19  C   LIG    1       -4.731  -1.397   0.620  0.00  0.00    +0.034 A 
ATOM     20  C   LIG    1       -4.827  -0.293   1.457  0.00  0.00    +0.027 A 
ATOM     21  C   LIG    1       -3.755   0.567   1.591  0.00  0.00    +0.047 A 
ATOM     22  C   LIG    1       -2.586   0.334   0.881  0.00  0.00    +0.120 A 
ATOM     23  C   LIG    1       -2.490  -0.769   0.045  0.00  0.00    +0.047 A 
ATOM     24  C   LIG    1       -3.559  -1.632  -0.086  0.00  0.00    +0.027 A 
BRANCH  22  25
ATOM     25  O   LIG    1       -1.532   1.184   1.010  0.00  0.00    -0.495 OA
ATOM     26  C   LIG    1       -0.360   0.883   0.249  0.00  0.00    +0.277 C 
ENDBRANCH  22  25
ENDBRANCH  16  19
ENDBRANCH   1  15
TORSDOF 5
