REMARK  Name = ZINC000082098769
REMARK                            x       y       z     vdW  Elec       q    Type
REMARK                         _______ _______ _______ _____ _____    ______ ____
ROOT
ATOM      1  N   LIG    1        2.347  -1.612   1.326  0.00  0.00    -0.315 N 
ATOM      2  H   LIG    1        1.582  -1.294   0.822  0.00  0.00    +0.149 HD
ATOM      3  C   LIG    1        3.163  -2.545   0.795  0.00  0.00    +0.213 C 
ATOM      4  O   LIG    1        4.064  -3.010   1.460  0.00  0.00    -0.276 OA
ENDROOT
BRANCH   1   5
ATOM      5  C   LIG    1        2.617  -1.078   2.663  0.00  0.00    +0.112 C 
BRANCH   5   6
ATOM      6  C   LIG    1        1.485  -0.134   3.073  0.00  0.00    +0.006 C 
ATOM      7  C   LIG    1        1.141  -0.047   4.562  0.00  0.00    +0.011 C 
ATOM      8  C   LIG    1        0.194  -0.765   3.599  0.00  0.00    +0.011 C 
BRANCH   6   9
ATOM      9  C   LIG    1        1.359   1.145   2.243  0.00  0.00    +0.152 C 
BRANCH   9  10
ATOM     10  N   LIG    1        2.685   1.557   1.776  0.00  0.00    -0.268 N 
ATOM     11  C   LIG    1        3.572   2.307   2.463  0.00  0.00    +0.036 A 
ATOM     12  C   LIG    1        3.377   2.866   3.849  0.00  0.00    +0.065 C 
ATOM     13  C   LIG    1        4.669   2.463   1.687  0.00  0.00    +0.047 A 
ATOM     14  C   LIG    1        4.444   1.789   0.483  0.00  0.00    +0.060 A 
ATOM     15  C   LIG    1        5.406   1.700  -0.674  0.00  0.00    +0.067 C 
ATOM     16  N   LIG    1        3.254   1.248   0.533  0.00  0.00    -0.176 NA
ENDBRANCH   9  10
ENDBRANCH   6   9
ENDBRANCH   5   6
ENDBRANCH   1   5
BRANCH   3  17
ATOM     17  C   LIG    1        2.955  -3.009  -0.623  0.00  0.00    +0.100 C 
BRANCH  17  18
ATOM     18  C   LIG    1        3.922  -4.153  -0.932  0.00  0.00    +0.048 C 
BRANCH  18  19
ATOM     19  C   LIG    1        3.714  -4.617  -2.351  0.00  0.00    -0.004 A 
ATOM     20  C   LIG    1        2.855  -5.582  -2.755  0.00  0.00    +0.039 A 
ATOM     21  C   LIG    1        1.937  -6.383  -1.868  0.00  0.00    +0.065 C 
ATOM     22  N   LIG    1        2.968  -5.698  -4.095  0.00  0.00    -0.271 N 
ATOM     23  N   LIG    1        3.928  -4.775  -4.528  0.00  0.00    -0.176 NA
ATOM     24  C   LIG    1        2.218  -6.626  -4.945  0.00  0.00    +0.172 C 
ATOM     25  C   LIG    1        4.370  -4.123  -3.483  0.00  0.00    +0.063 A 
ATOM     26  C   LIG    1        5.413  -3.036  -3.495  0.00  0.00    +0.068 C 
ENDBRANCH  18  19
ENDBRANCH  17  18
ENDBRANCH   3  17
TORSDOF 7
