REMARK  Name = ZINC000012981652
REMARK                            x       y       z     vdW  Elec       q    Type
REMARK                         _______ _______ _______ _____ _____    ______ ____
ROOT
ATOM      1  N   LIG    1        0.819  -6.183   1.210  0.00  0.00    -0.271 N 
ATOM      2  C   LIG    1       -0.077  -6.958   1.847  0.00  0.00    +0.221 C 
ATOM      3  O   LIG    1       -1.015  -6.545   2.496  0.00  0.00    -0.275 OA
ATOM      4  C   LIG    1        0.250  -8.418   1.628  0.00  0.00    +0.110 C 
ATOM      5  C   LIG    1        1.712  -8.407   1.124  0.00  0.00    +0.102 C 
ATOM      6  C   LIG    1        1.822  -6.994   0.510  0.00  0.00    +0.127 C 
ENDROOT
BRANCH   1   7
ATOM      7  C   LIG    1        0.800  -4.784   1.218  0.00  0.00    +0.036 A 
ATOM      8  C   LIG    1       -0.254  -4.106   1.815  0.00  0.00    +0.024 A 
ATOM      9  C   LIG    1       -0.270  -2.725   1.821  0.00  0.00    +0.005 A 
ATOM     10  C   LIG    1        0.762  -2.018   1.233  0.00  0.00    -0.047 A 
ATOM     11  C   LIG    1        1.811  -2.690   0.633  0.00  0.00    +0.005 A 
ATOM     12  C   LIG    1        1.835  -4.071   0.628  0.00  0.00    +0.024 A 
BRANCH  10  13
ATOM     13  C   LIG    1        0.742  -0.511   1.242  0.00  0.00    +0.035 C 
BRANCH  13  14
ATOM     14  C   LIG    1        0.017  -0.004  -0.007  0.00  0.00    +0.001 C 
ATOM     15  C   LIG    1       -0.004   1.526   0.002  0.00  0.00    +0.004 C 
ENDBRANCH  13  14
ENDBRANCH  10  13
ENDBRANCH   1   7
BRANCH   5  16
ATOM     16  C   LIG    1        1.930  -9.469   0.077  0.00  0.00    +0.224 C 
ATOM     17  N   LIG    1        1.873 -10.772   0.417  0.00  0.00    -0.263 N 
ATOM     18  H   LIG    1        1.692 -11.026   1.335  0.00  0.00    +0.157 HD
ATOM     19  O   LIG    1        2.157  -9.151  -1.071  0.00  0.00    -0.275 OA
BRANCH  17  20
ATOM     20  C   LIG    1        2.075 -11.752  -0.549  0.00  0.00    +0.187 A 
ATOM     21  S   LIG    1        2.036 -13.443  -0.280  0.00  0.00    -0.039 S 
ATOM     22  C   LIG    1        2.380 -13.704  -1.990  0.00  0.00    +0.183 A 
ATOM     23  N   LIG    1        2.488 -12.542  -2.552  0.00  0.00    -0.148 NA
ATOM     24  N   LIG    1        2.330 -11.536  -1.805  0.00  0.00    -0.126 NA
ENDBRANCH  17  20
ENDBRANCH   5  16
TORSDOF 5
