REMARK  Name = ZINC000069615736
REMARK                            x       y       z     vdW  Elec       q    Type
REMARK                         _______ _______ _______ _____ _____    ______ ____
ROOT
ATOM      1  N   LIG    1       -4.920  -6.738   0.174  0.00  0.00    -0.283 NA
ATOM      2  C   LIG    1       -5.274  -8.014   0.810  0.00  0.00    +0.143 C 
ATOM      3  C   LIG    1       -6.775  -8.037   1.109  0.00  0.00    +0.028 C 
ATOM      4  C   LIG    1       -7.554  -7.863  -0.197  0.00  0.00    +0.003 C 
ATOM      5  C   LIG    1       -7.132  -6.551  -0.863  0.00  0.00    +0.015 C 
ATOM      6  C   LIG    1       -5.621  -6.571  -1.106  0.00  0.00    +0.085 C 
ENDROOT
BRANCH   2   7
ATOM      7  C   LIG    1       -4.503  -8.164   2.095  0.00  0.00    +0.231 C 
ATOM      8  O   LIG    1       -4.169  -7.181   2.722  0.00  0.00    -0.274 OA
ATOM      9  N   LIG    1       -4.183  -9.392   2.550  0.00  0.00    -0.309 N 
ATOM     10  H   LIG    1       -4.450 -10.179   2.049  0.00  0.00    +0.149 HD
BRANCH   9  11
ATOM     11  C   LIG    1       -3.433  -9.539   3.800  0.00  0.00    +0.026 C 
ATOM     12  C   LIG    1       -4.229  -8.916   4.948  0.00  0.00    +0.031 C 
ATOM     13  C   LIG    1       -3.204 -11.024   4.085  0.00  0.00    +0.031 C 
ATOM     14  C   LIG    1       -2.084  -8.830   3.671  0.00  0.00    +0.031 C 
ENDBRANCH   9  11
ENDBRANCH   2   7
BRANCH   1  15
ATOM     15  C   LIG    1       -3.467  -6.623  -0.003  0.00  0.00    +0.181 C 
BRANCH  15  16
ATOM     16  C   LIG    1       -3.107  -5.186  -0.280  0.00  0.00    +0.231 C 
ATOM     17  O   LIG    1       -3.975  -4.341  -0.326  0.00  0.00    -0.274 OA
ATOM     18  N   LIG    1       -1.819  -4.840  -0.476  0.00  0.00    -0.284 N 
ATOM     19  H   LIG    1       -1.133  -5.525  -0.512  0.00  0.00    +0.155 HD
BRANCH  18  20
ATOM     20  C   LIG    1       -1.472  -3.493  -0.630  0.00  0.00    +0.037 A 
ATOM     21  C   LIG    1       -2.175  -2.511   0.056  0.00  0.00    +0.023 A 
ATOM     22  C   LIG    1       -1.833  -1.182  -0.096  0.00  0.00    +0.005 A 
ATOM     23  C   LIG    1       -0.790  -0.825  -0.930  0.00  0.00    +0.046 A 
ATOM     24  C   LIG    1       -0.085  -1.801  -1.618  0.00  0.00    +0.122 A 
ATOM     25  C   LIG    1       -0.429  -3.136  -1.473  0.00  0.00    +0.069 A 
BRANCH  24  26
ATOM     26  O   LIG    1        0.940  -1.449  -2.438  0.00  0.00    -0.495 OA
ATOM     27  C   LIG    1        1.240  -0.055  -2.539  0.00  0.00    +0.277 C 
ENDBRANCH  24  26
ENDBRANCH  18  20
ENDBRANCH  15  16
ENDBRANCH   1  15
TORSDOF 6
