REMARK  Name = ZINC000025869949
REMARK                            x       y       z     vdW  Elec       q    Type
REMARK                         _______ _______ _______ _____ _____    ______ ____
ROOT
ATOM      1  C   LIG    1       -0.538   1.446   0.087  0.00  0.00    +0.047 C 
ATOM      2  C   LIG    1       -0.246  -0.032   0.039  0.00  0.00    -0.002 A 
ATOM      3  C   LIG    1        0.127  -0.700   1.190  0.00  0.00    +0.132 A 
ATOM      4  C   LIG    1        0.390  -2.057   1.147  0.00  0.00    +0.061 A 
ATOM      5  C   LIG    1        0.289  -2.743  -0.049  0.00  0.00    +0.109 A 
ATOM      6  C   LIG    1       -0.079  -2.075  -1.201  0.00  0.00    +0.049 A 
ATOM      7  C   LIG    1       -0.347  -0.718  -1.158  0.00  0.00    +0.048 A 
ATOM      8 CL   LIG    1       -0.809   0.122  -2.605  0.00  0.00    -0.083 Cl
ENDROOT
BRANCH   3   9
ATOM      9  N   LIG    1        0.236   0.034   2.470  0.00  0.00    +0.057 N 
ATOM     10  O   LIG    1       -0.111  -0.498   3.509  0.00  0.00    -0.126 OA
ATOM     11  O   LIG    1        0.672   1.171   2.485  0.00  0.00    -0.126 OA
ENDBRANCH   3   9
BRANCH   5  12
ATOM     12  S   LIG    1        0.631  -4.471  -0.104  0.00  0.00    +0.059 S 
ATOM     13  O   LIG    1        0.430  -4.962   1.214  0.00  0.00    -0.153 OA
ATOM     14  O   LIG    1       -0.059  -4.981  -1.237  0.00  0.00    -0.153 OA
BRANCH  12  15
ATOM     15  N   LIG    1        2.247  -4.641  -0.425  0.00  0.00    -0.187 NA
ATOM     16  H   LIG    1        2.536  -5.050  -1.256  0.00  0.00    +0.148 HD
BRANCH  15  17
ATOM     17  C   LIG    1        3.240  -4.175   0.545  0.00  0.00    +0.137 C 
BRANCH  17  18
ATOM     18  C   LIG    1        4.607  -4.769   0.202  0.00  0.00    +0.134 C 
ATOM     19  C   LIG    1        5.666  -4.316   1.238  0.00  0.00    +0.035 C 
ATOM     20  C   LIG    1        6.706  -5.463   1.118  0.00  0.00    +0.031 C 
ATOM     21  C   LIG    1        5.811  -6.687   0.828  0.00  0.00    +0.160 C 
ATOM     22  O   LIG    1        4.568  -6.201   0.305  0.00  0.00    -0.375 OA
ENDBRANCH  17  18
ENDBRANCH  15  17
ENDBRANCH  12  15
ENDBRANCH   5  12
TORSDOF 5
