REMARK  Name = ZINC000095992426
REMARK                            x       y       z     vdW  Elec       q    Type
REMARK                         _______ _______ _______ _____ _____    ______ ____
ROOT
ATOM      1  N   LIG    1       -1.557  -0.158   1.428  0.00  0.00    -0.293 NA
ATOM      2  C   LIG    1       -0.339  -0.505   2.173  0.00  0.00    +0.100 C 
ATOM      3  C   LIG    1       -0.477  -0.027   3.621  0.00  0.00    +0.100 C 
ATOM      4  N   LIG    1       -1.659  -0.652   4.230  0.00  0.00    -0.295 NA
ATOM      5  C   LIG    1       -2.877  -0.306   3.484  0.00  0.00    +0.100 C 
ATOM      6  C   LIG    1       -2.740  -0.784   2.037  0.00  0.00    +0.100 C 
ENDROOT
BRANCH   4   7
ATOM      7  C   LIG    1       -1.783  -0.277   5.644  0.00  0.00    +0.079 C 
ATOM      8  C   LIG    1       -0.561  -0.780   6.432  0.00  0.00    +0.043 C 
ATOM      9  C   LIG    1       -0.869  -0.680   7.939  0.00  0.00    +0.167 C 
ATOM     10  S   LIG    1       -2.686  -0.844   8.066  0.00  0.00    -0.029 S 
ATOM     11  O   LIG    1       -3.005  -2.081   8.688  0.00  0.00    -0.174 OA
ATOM     12  O   LIG    1       -3.234   0.365   8.573  0.00  0.00    -0.174 OA
ATOM     13  C   LIG    1       -3.026  -0.962   6.269  0.00  0.00    +0.184 C 
ENDBRANCH   4   7
BRANCH   1  14
ATOM     14  C   LIG    1       -1.433  -0.534   0.013  0.00  0.00    +0.087 C 
BRANCH  14  15
ATOM     15  C   LIG    1       -1.081  -1.995  -0.090  0.00  0.00    -0.030 A 
ATOM     16  C   LIG    1        0.191  -2.424   0.241  0.00  0.00    +0.008 A 
ATOM     17  C   LIG    1        0.514  -3.765   0.152  0.00  0.00    +0.038 A 
ATOM     18  C   LIG    1       -0.434  -4.677  -0.280  0.00  0.00    +0.123 A 
ATOM     19  F   LIG    1       -0.118  -5.987  -0.372  0.00  0.00    -0.205 F 
ATOM     20  C   LIG    1       -1.706  -4.246  -0.617  0.00  0.00    +0.038 A 
ATOM     21  C   LIG    1       -2.028  -2.905  -0.522  0.00  0.00    +0.008 A 
ENDBRANCH  14  15
BRANCH  14  22
ATOM     22  C   LIG    1       -0.333   0.304  -0.642  0.00  0.00    +0.020 C 
ATOM     23  C   LIG    1       -0.749   1.776  -0.649  0.00  0.00    +0.006 C 
ENDBRANCH  14  22
ENDBRANCH   1  14
TORSDOF 4
