REMARK  Name = ZINC000095993860
REMARK                            x       y       z     vdW  Elec       q    Type
REMARK                         _______ _______ _______ _____ _____    ______ ____
ROOT
ATOM      1  C   LIG    1       -4.828  -0.307   1.169  0.00  0.00    +0.124 A 
ATOM      2  C   LIG    1       -5.419  -0.779   2.324  0.00  0.00    +0.143 A 
ATOM      3  N   LIG    1       -6.459  -1.589   2.269  0.00  0.00    -0.219 NA
ATOM      4  C   LIG    1       -6.968  -1.988   1.115  0.00  0.00    +0.215 A 
ATOM      5  C   LIG    1       -6.421  -1.557  -0.086  0.00  0.00    +0.069 A 
ATOM      6  C   LIG    1       -5.332  -0.702  -0.062  0.00  0.00    +0.035 A 
ENDROOT
BRANCH   1   7
ATOM      7  S   LIG    1       -3.444   0.780   1.257  0.00  0.00    +0.062 S 
ATOM      8  O   LIG    1       -3.510   1.411   2.528  0.00  0.00    -0.153 OA
ATOM      9  O   LIG    1       -3.420   1.499   0.032  0.00  0.00    -0.153 OA
BRANCH   7  10
ATOM     10  N   LIG    1       -2.082  -0.162   1.273  0.00  0.00    -0.177 NA
ATOM     11  C   LIG    1       -1.524  -0.623   2.547  0.00  0.00    +0.132 C 
BRANCH  10  12
ATOM     12  C   LIG    1       -1.433  -0.534   0.013  0.00  0.00    +0.076 C 
ATOM     13  C   LIG    1       -1.416  -2.058  -0.121  0.00  0.00    +0.026 C 
BRANCH  12  14
ATOM     14  C   LIG    1        0.002  -0.004   0.002  0.00  0.00    +0.017 C 
ATOM     15  C   LIG    1       -0.019   1.526   0.010  0.00  0.00    +0.005 C 
ENDBRANCH  12  14
ENDBRANCH  10  12
ENDBRANCH   7  10
ENDBRANCH   1   7
BRANCH   4  16
ATOM     16  O   LIG    1       -8.035  -2.826   1.105  0.00  0.00    -0.467 OA
BRANCH  16  17
ATOM     17  C   LIG    1       -8.552  -3.233   2.374  0.00  0.00    +0.343 C 
BRANCH  17  18
ATOM     18  C   LIG    1       -9.744  -4.169   2.162  0.00  0.00    +0.424 C 
ATOM     19  F   LIG    1      -10.250  -4.568   3.404  0.00  0.00    -0.167 F 
ATOM     20  F   LIG    1      -10.741  -3.500   1.445  0.00  0.00    -0.167 F 
ATOM     21  F   LIG    1       -9.329  -5.296   1.444  0.00  0.00    -0.167 F 
ENDBRANCH  17  18
ENDBRANCH  16  17
ENDBRANCH   4  16
TORSDOF 7
