REMARK  Name = ZINC000012980993
REMARK                            x       y       z     vdW  Elec       q    Type
REMARK                         _______ _______ _______ _____ _____    ______ ____
ROOT
ATOM      1  C   LIG    1        0.044  -1.579   4.864  0.00  0.00    +0.246 C 
ATOM      2  N   LIG    1        0.062  -2.656   5.673  0.00  0.00    -0.305 N 
ATOM      3  H   LIG    1        0.073  -3.548   5.293  0.00  0.00    +0.150 HD
ATOM      4  O   LIG    1        0.030  -0.460   5.342  0.00  0.00    -0.270 OA
ENDROOT
BRANCH   1   5
ATOM      5  C   LIG    1        0.040  -1.756   3.398  0.00  0.00    +0.056 A 
ATOM      6  C   LIG    1        0.055  -3.041   2.839  0.00  0.00    +0.126 A 
ATOM      7  N   LIG    1        0.052  -3.220   1.539  0.00  0.00    -0.235 NA
ATOM      8  C   LIG    1        0.035  -2.198   0.690  0.00  0.00    +0.158 A 
ATOM      9  C   LIG    1        0.025  -0.873   1.175  0.00  0.00    +0.042 A 
ATOM     10  C   LIG    1        0.002  -0.004   0.002  0.00  0.00    +0.069 A 
ATOM     11  C   LIG    1       -0.018   1.503   0.010  0.00  0.00    +0.068 C 
ATOM     12  N   LIG    1        0.008  -0.767  -1.053  0.00  0.00    -0.174 NA
ATOM     13  N   LIG    1        0.028  -2.113  -0.673  0.00  0.00    -0.249 N 
ATOM     14  C   LIG    1        0.040  -3.252  -1.593  0.00  0.00    +0.174 C 
ATOM     15  C   LIG    1        0.021  -0.646   2.553  0.00  0.00    +0.028 A 
ENDBRANCH   1   5
BRANCH   2  16
ATOM     16  C   LIG    1        0.066  -2.480   7.128  0.00  0.00    +0.101 C 
ATOM     17  C   LIG    1       -1.371  -2.314   7.625  0.00  0.00    +0.033 C 
BRANCH  16  18
ATOM     18  C   LIG    1        0.686  -3.690   7.779  0.00  0.00    -0.024 A 
ATOM     19  C   LIG    1        1.533  -3.534   8.861  0.00  0.00    +0.055 A 
ATOM     20  C   LIG    1        2.099  -4.645   9.464  0.00  0.00    +0.167 A 
ATOM     21  O   LIG    1        2.946  -4.764  10.527  0.00  0.00    -0.453 OA
ATOM     22  C   LIG    1        3.508  -6.085  10.425  0.00  0.00    +0.466 C 
ATOM     23  O   LIG    1        2.497  -6.834   9.724  0.00  0.00    -0.453 OA
ATOM     24  C   LIG    1        1.823  -5.918   8.970  0.00  0.00    +0.166 A 
ATOM     25  C   LIG    1        0.979  -6.066   7.882  0.00  0.00    +0.050 A 
ATOM     26  C   LIG    1        0.412  -4.953   7.289  0.00  0.00    +0.009 A 
ENDBRANCH  16  18
ENDBRANCH   2  16
TORSDOF 3
