REMARK  Name = ZINC000025692546
REMARK                            x       y       z     vdW  Elec       q    Type
REMARK                         _______ _______ _______ _____ _____    ______ ____
ROOT
ATOM      1  C   LIG    1       -4.862  -3.287   2.503  0.00  0.00    +0.100 C 
ATOM      2  C   LIG    1       -5.878  -2.209   2.119  0.00  0.00    +0.033 C 
ENDROOT
BRANCH   1   3
ATOM      3  C   LIG    1       -5.590  -4.551   2.880  0.00  0.00    -0.027 A 
ATOM      4  C   LIG    1       -5.785  -4.865   4.212  0.00  0.00    +0.007 A 
ATOM      5  C   LIG    1       -6.456  -6.021   4.560  0.00  0.00    +0.028 A 
ATOM      6  C   LIG    1       -6.926  -6.874   3.571  0.00  0.00    +0.067 A 
ATOM      7  C   LIG    1       -6.724  -6.559   2.234  0.00  0.00    +0.028 A 
ATOM      8  C   LIG    1       -6.057  -5.399   1.892  0.00  0.00    +0.007 A 
BRANCH   6   9
ATOM      9  N   LIG    1       -7.603  -8.051   3.921  0.00  0.00    -0.220 N 
ATOM     10  C   LIG    1       -7.877  -8.485   5.166  0.00  0.00    +0.225 A 
ATOM     11  N   LIG    1       -8.520  -9.620   5.067  0.00  0.00    -0.222 NA
ATOM     12  C   LIG    1       -8.674  -9.942   3.783  0.00  0.00    +0.245 A 
ATOM     13  N   LIG    1       -8.135  -9.009   3.043  0.00  0.00    -0.154 NA
ENDBRANCH   6   9
ENDBRANCH   1   3
BRANCH   1  14
ATOM     14  N   LIG    1       -3.978  -3.552   1.366  0.00  0.00    -0.308 N 
ATOM     15  C   LIG    1       -2.891  -2.782   1.163  0.00  0.00    +0.219 C 
ATOM     16  O   LIG    1       -2.644  -1.869   1.923  0.00  0.00    -0.275 OA
ATOM     17  H   LIG    1       -4.176  -4.282   0.758  0.00  0.00    +0.149 HD
BRANCH  15  18
ATOM     18  C   LIG    1       -1.981  -3.055  -0.007  0.00  0.00    +0.151 C 
BRANCH  18  19
ATOM     19  C   LIG    1       -0.850  -2.060  -0.006  0.00  0.00    +0.057 A 
ATOM     20  N   LIG    1       -1.046  -0.757   0.003  0.00  0.00    -0.249 NA
ATOM     21  C   LIG    1        0.002  -0.004   0.002  0.00  0.00    +0.076 A 
ATOM     22  C   LIG    1       -0.018   1.503   0.010  0.00  0.00    +0.073 C 
ATOM     23  S   LIG    1        1.417  -0.964  -0.017  0.00  0.00    -0.081 S 
ATOM     24  C   LIG    1        0.436  -2.427  -0.015  0.00  0.00    +0.070 A 
ENDBRANCH  18  19
ENDBRANCH  15  18
ENDBRANCH   1  14
TORSDOF 5
