REMARK  Name = ZINC000009616268
REMARK                            x       y       z     vdW  Elec       q    Type
REMARK                         _______ _______ _______ _____ _____    ______ ____
ROOT
ATOM      1  C   LIG    1       -2.449   1.120   0.020  0.00  0.00    +0.184 C 
ENDROOT
BRANCH   1   2
ATOM      2  N   LIG    1       -1.191   1.870   0.018  0.00  0.00    -0.292 N 
ATOM      3  H   LIG    1       -1.204   2.840   0.023  0.00  0.00    +0.151 HD
ATOM      4  C   LIG    1       -0.014   1.212   0.009  0.00  0.00    +0.300 C 
ATOM      5  O   LIG    1        0.002  -0.004   0.002  0.00  0.00    -0.253 OA
ATOM      6  N   LIG    1        1.143   1.901   0.001  0.00  0.00    -0.295 N 
ATOM      7  H   LIG    1        1.130   2.871   0.007  0.00  0.00    +0.151 HD
BRANCH   6   8
ATOM      8  C   LIG    1        2.422   1.186  -0.015  0.00  0.00    +0.148 C 
BRANCH   8   9
ATOM      9  C   LIG    1        3.554   2.181  -0.020  0.00  0.00    +0.007 A 
ATOM     10  C   LIG    1        4.146   2.679   1.067  0.00  0.00    +0.013 A 
ATOM     11  C   LIG    1        5.166   3.580   0.815  0.00  0.00    +0.008 A 
ATOM     12  C   LIG    1        5.403   3.814  -0.477  0.00  0.00    +0.045 A 
ATOM     13  S   LIG    1        4.302   2.858  -1.461  0.00  0.00    -0.100 S 
ENDBRANCH   8   9
ENDBRANCH   6   8
ENDBRANCH   1   2
BRANCH   1  14
ATOM     14  C   LIG    1       -3.608   2.084   0.030  0.00  0.00    +0.174 A 
ATOM     15  N   LIG    1       -4.195   2.578   1.089  0.00  0.00    -0.111 NA
ATOM     16  N   LIG    1       -5.148   3.369   0.750  0.00  0.00    -0.023 NA
ATOM     17  N   LIG    1       -5.236   3.436  -0.535  0.00  0.00    -0.039 NA
ATOM     18  N   LIG    1       -4.229   2.602  -1.051  0.00  0.00    -0.196 N 
BRANCH  18  19
ATOM     19  C   LIG    1       -3.937   2.354  -2.401  0.00  0.00    +0.069 A 
ATOM     20  C   LIG    1       -2.623   2.155  -2.803  0.00  0.00    +0.029 A 
ATOM     21  C   LIG    1       -2.337   1.911  -4.132  0.00  0.00    +0.022 A 
ATOM     22  C   LIG    1       -3.360   1.866  -5.063  0.00  0.00    +0.041 A 
ATOM     23  C   LIG    1       -4.671   2.064  -4.665  0.00  0.00    +0.022 A 
ATOM     24 CL   LIG    1       -2.999   1.560  -6.733  0.00  0.00    -0.084 Cl
ATOM     25  C   LIG    1       -4.961   2.302  -3.336  0.00  0.00    +0.029 A 
ENDBRANCH  18  19
ENDBRANCH   1  14
TORSDOF 5
