REMARK  Name = ZINC000025853795
REMARK                            x       y       z     vdW  Elec       q    Type
REMARK                         _______ _______ _______ _____ _____    ______ ____
ROOT
ATOM      1  C   LIG    1        1.448  -0.204   3.037  0.00  0.00    +0.220 C 
ATOM      2  N   LIG    1        1.697   0.203   4.298  0.00  0.00    -0.299 N 
ATOM      3  C   LIG    1        0.596   0.483   5.232  0.00  0.00    +0.123 C 
ATOM      4  C   LIG    1        0.852  -0.287   6.532  0.00  0.00    +0.103 C 
ATOM      5  N   LIG    1        2.192   0.042   7.035  0.00  0.00    -0.295 NA
ATOM      6  C   LIG    1        3.236  -0.388   6.094  0.00  0.00    +0.103 C 
ATOM      7  C   LIG    1        3.077   0.372   4.778  0.00  0.00    +0.123 C 
ATOM      8  O   LIG    1        2.369  -0.435   2.282  0.00  0.00    -0.275 OA
ENDROOT
BRANCH   5   9
ATOM      9  C   LIG    1        2.412  -0.539   8.366  0.00  0.00    +0.119 C 
BRANCH   9  10
ATOM     10  C   LIG    1        3.685   0.015   8.953  0.00  0.00    -0.033 A 
ATOM     11  C   LIG    1        3.650   1.167   9.716  0.00  0.00    +0.005 A 
ATOM     12  C   LIG    1        4.816   1.673  10.258  0.00  0.00    +0.001 A 
ATOM     13  C   LIG    1        6.020   1.032  10.028  0.00  0.00    +0.003 A 
ATOM     14  C   LIG    1        6.056  -0.117   9.261  0.00  0.00    -0.050 A 
ATOM     15  C   LIG    1        7.367  -0.815   9.011  0.00  0.00    +0.044 C 
ATOM     16  C   LIG    1        4.888  -0.625   8.723  0.00  0.00    +0.008 A 
ENDBRANCH   9  10
ENDBRANCH   5   9
BRANCH   1  17
ATOM     17  C   LIG    1        0.027  -0.371   2.566  0.00  0.00    +0.134 C 
BRANCH  17  18
ATOM     18  C   LIG    1        0.024  -0.830   1.131  0.00  0.00    +0.005 A 
ATOM     19  C   LIG    1        0.034  -2.115   0.706  0.00  0.00    +0.040 A 
ATOM     20  C   LIG    1        0.055  -3.340   1.583  0.00  0.00    +0.065 C 
ATOM     21  N   LIG    1        0.029  -2.102  -0.644  0.00  0.00    -0.271 N 
ATOM     22  N   LIG    1        0.008  -0.765  -1.062  0.00  0.00    -0.176 NA
ATOM     23  C   LIG    1        0.041  -3.278  -1.517  0.00  0.00    +0.172 C 
ATOM     24  C   LIG    1        0.002  -0.004   0.002  0.00  0.00    +0.064 A 
ATOM     25  C   LIG    1       -0.018   1.503   0.010  0.00  0.00    +0.068 C 
ENDBRANCH  17  18
ENDBRANCH   1  17
TORSDOF 4
