REMARK  Name = ZINC000058179722
REMARK                            x       y       z     vdW  Elec       q    Type
REMARK                         _______ _______ _______ _____ _____    ______ ____
ROOT
ATOM      1  C   LIG    1       -2.299  -4.631  -3.081  0.00  0.00    +0.081 A 
ATOM      2  C   LIG    1       -3.316  -5.549  -2.782  0.00  0.00    -0.002 A 
ATOM      3  C   LIG    1       -4.812  -5.643  -2.574  0.00  0.00    +0.039 C 
ATOM      4  C   LIG    1       -5.142  -7.146  -2.714  0.00  0.00    +0.011 C 
ATOM      5  C   LIG    1       -3.800  -7.805  -2.322  0.00  0.00    +0.056 C 
ATOM      6  C   LIG    1       -2.747  -6.767  -2.642  0.00  0.00    +0.048 A 
ATOM      7  N   LIG    1       -1.414  -6.624  -2.837  0.00  0.00    -0.236 N 
ATOM      8  N   LIG    1       -1.161  -5.275  -3.111  0.00  0.00    -0.170 NA
ENDROOT
BRANCH   7   9
ATOM      9  C   LIG    1       -0.457  -7.647  -2.776  0.00  0.00    +0.066 A 
ATOM     10  C   LIG    1       -0.608  -8.687  -1.869  0.00  0.00    +0.028 A 
ATOM     11  C   LIG    1        0.337  -9.694  -1.811  0.00  0.00    +0.002 A 
ATOM     12  C   LIG    1        1.432  -9.665  -2.655  0.00  0.00    +0.000 A 
ATOM     13  C   LIG    1        1.585  -8.630  -3.558  0.00  0.00    +0.002 A 
ATOM     14  C   LIG    1        0.641  -7.624  -3.626  0.00  0.00    +0.028 A 
ENDBRANCH   7   9
BRANCH   1  15
ATOM     15  C   LIG    1       -2.485  -3.155  -3.321  0.00  0.00    +0.142 C 
BRANCH  15  16
ATOM     16  N   LIG    1       -2.366  -2.433  -2.047  0.00  0.00    -0.295 NA
ATOM     17  C   LIG    1       -1.103  -2.660  -1.452  0.00  0.00    +0.103 C 
ATOM     18  C   LIG    1       -1.105  -2.142   0.001  0.00  0.00    +0.123 C 
ATOM     19  N   LIG    1       -1.156  -0.694   0.009  0.00  0.00    -0.300 N 
ATOM     20  C   LIG    1       -2.428   0.055   0.019  0.00  0.00    +0.109 C 
ATOM     21  C   LIG    1       -3.459  -0.583  -0.927  0.00  0.00    +0.034 C 
ATOM     22  C   LIG    1        0.002  -0.004   0.002  0.00  0.00    +0.212 C 
ATOM     23  C   LIG    1       -0.018   1.503   0.010  0.00  0.00    +0.109 C 
ATOM     24  O   LIG    1        1.060  -0.596  -0.011  0.00  0.00    -0.276 OA
ATOM     25  C   LIG    1       -2.771  -1.036  -2.196  0.00  0.00    +0.086 C 
ENDBRANCH  15  16
ENDBRANCH   1  15
TORSDOF 3
