REMARK  Name = ZINC000012980179
REMARK                            x       y       z     vdW  Elec       q    Type
REMARK                         _______ _______ _______ _____ _____    ______ ____
ROOT
ATOM      1  C   LIG    1        0.504  -2.046   1.228  0.00  0.00    +0.078 C 
ATOM      2  C   LIG    1        1.372  -2.659   2.061  0.00  0.00    +0.021 C 
ATOM      3  C   LIG    1        2.098  -1.848   3.102  0.00  0.00    +0.061 C 
ATOM      4  N   LIG    1        1.602  -4.003   1.975  0.00  0.00    -0.273 N 
ATOM      5  H   LIG    1        2.234  -4.399   2.595  0.00  0.00    +0.156 HD
ATOM      6  C   LIG    1        1.004  -4.803   1.083  0.00  0.00    +0.304 C 
ATOM      7  O   LIG    1        1.274  -5.988   1.084  0.00  0.00    -0.252 OA
ATOM      8  N   LIG    1        0.113  -4.338   0.186  0.00  0.00    -0.288 N 
ATOM      9  H   LIG    1       -0.308  -4.935  -0.452  0.00  0.00    +0.151 HD
ATOM     10  C   LIG    1       -0.210  -2.901   0.199  0.00  0.00    +0.143 C 
ENDROOT
BRANCH  10  11
ATOM     11  C   LIG    1        0.114  -2.339  -1.161  0.00  0.00    -0.022 A 
ATOM     12  C   LIG    1       -0.730  -1.410  -1.742  0.00  0.00    +0.009 A 
ATOM     13  C   LIG    1       -0.433  -0.890  -2.987  0.00  0.00    +0.046 A 
ATOM     14  C   LIG    1        0.707  -1.308  -3.659  0.00  0.00    +0.130 A 
ATOM     15  C   LIG    1        1.548  -2.244  -3.076  0.00  0.00    +0.046 A 
ATOM     16  C   LIG    1        1.250  -2.758  -1.828  0.00  0.00    +0.009 A 
BRANCH  14  17
ATOM     17  O   LIG    1        0.998  -0.802  -4.886  0.00  0.00    -0.406 OA
BRANCH  17  18
ATOM     18  C   LIG    1        0.087   0.158  -5.425  0.00  0.00    +0.575 C 
ATOM     19  F   LIG    1        0.014   1.262  -4.570  0.00  0.00    -0.133 F 
ATOM     20  F   LIG    1       -1.181  -0.421  -5.548  0.00  0.00    -0.133 F 
ATOM     21  F   LIG    1        0.535   0.571  -6.684  0.00  0.00    -0.133 F 
ENDBRANCH  17  18
ENDBRANCH  14  17
ENDBRANCH  10  11
BRANCH   1  22
ATOM     22  C   LIG    1        0.264  -0.655   1.315  0.00  0.00    +0.338 C 
ATOM     23  O   LIG    1        0.757  -0.009   2.221  0.00  0.00    -0.245 OA
BRANCH  22  24
ATOM     24  O   LIG    1       -0.512  -0.045   0.395  0.00  0.00    -0.465 OA
ATOM     25  C   LIG    1       -0.711   1.363   0.546  0.00  0.00    +0.280 C 
ENDBRANCH  22  24
ENDBRANCH   1  22
TORSDOF 5
