REMARK  Name = ZINC000025872807
REMARK                            x       y       z     vdW  Elec       q    Type
REMARK                         _______ _______ _______ _____ _____    ______ ____
ROOT
ATOM      1  S   LIG    1        1.079  -4.346  -0.085  0.00  0.00    +0.059 S 
ATOM      2  O   LIG    1        1.659  -4.599   1.187  0.00  0.00    -0.153 OA
ATOM      3  O   LIG    1        1.792  -4.485  -1.306  0.00  0.00    -0.153 OA
ENDROOT
BRANCH   1   4
ATOM      4  C   LIG    1        0.486  -2.688  -0.041  0.00  0.00    +0.112 A 
ATOM      5  C   LIG    1        0.159  -2.103   1.169  0.00  0.00    -0.021 A 
ATOM      6  C   LIG    1        0.309  -2.884   2.448  0.00  0.00    +0.046 C 
ATOM      7  C   LIG    1       -0.301  -0.800   1.204  0.00  0.00    -0.043 A 
ATOM      8  C   LIG    1       -0.658  -0.162   2.522  0.00  0.00    +0.044 C 
ATOM      9  C   LIG    1       -0.443  -0.085   0.029  0.00  0.00    -0.044 A 
ATOM     10  C   LIG    1       -0.949   1.334   0.068  0.00  0.00    +0.044 C 
ATOM     11  C   LIG    1       -0.116  -0.669  -1.180  0.00  0.00    -0.043 A 
ATOM     12  C   LIG    1       -0.265   0.112  -2.459  0.00  0.00    +0.044 C 
ATOM     13  C   LIG    1        0.348  -1.971  -1.215  0.00  0.00    -0.021 A 
ATOM     14  C   LIG    1        0.706  -2.608  -2.533  0.00  0.00    +0.046 C 
ENDBRANCH   1   4
BRANCH   1  15
ATOM     15  N   LIG    1       -0.244  -5.336  -0.202  0.00  0.00    -0.188 NA
ATOM     16  H   LIG    1       -0.459  -5.945   0.522  0.00  0.00    +0.148 HD
BRANCH  15  17
ATOM     17  C   LIG    1       -1.089  -5.293  -1.397  0.00  0.00    +0.124 C 
BRANCH  17  18
ATOM     18  C   LIG    1       -1.992  -6.527  -1.429  0.00  0.00    +0.121 C 
BRANCH  18  19
ATOM     19  N   LIG    1       -2.837  -6.483  -2.625  0.00  0.00    -0.314 N 
ATOM     20  C   LIG    1       -3.719  -7.474  -2.864  0.00  0.00    +0.216 C 
ATOM     21  O   LIG    1       -3.813  -8.402  -2.089  0.00  0.00    -0.276 OA
ATOM     22  H   LIG    1       -2.762  -5.741  -3.245  0.00  0.00    +0.149 HD
BRANCH  20  23
ATOM     23  C   LIG    1       -4.588  -7.429  -4.094  0.00  0.00    +0.075 C 
ATOM     24  C   LIG    1       -5.569  -8.583  -4.309  0.00  0.00    +0.013 C 
ATOM     25  C   LIG    1       -4.321  -8.466  -5.186  0.00  0.00    +0.013 C 
ENDBRANCH  20  23
ENDBRANCH  18  19
ENDBRANCH  17  18
ENDBRANCH  15  17
ENDBRANCH   1  15
TORSDOF 6
