REMARK  Name = ZINC000095993313
REMARK                            x       y       z     vdW  Elec       q    Type
REMARK                         _______ _______ _______ _____ _____    ______ ____
ROOT
ATOM      1  C   LIG    1        0.430  -0.761  -1.257  0.00  0.00    +0.026 C 
ATOM      2  C   LIG    1        1.951  -0.683  -1.407  0.00  0.00    +0.134 C 
ATOM      3  C   LIG    1        2.379  -1.471  -2.649  0.00  0.00    +0.141 C 
ATOM      4  N   LIG    1        1.631  -0.968  -3.809  0.00  0.00    -0.174 NA
ATOM      5  C   LIG    1        0.165  -0.915  -3.736  0.00  0.00    +0.110 C 
ATOM      6  C   LIG    1       -0.238  -0.133  -2.482  0.00  0.00    +0.023 C 
ENDROOT
BRANCH   1   7
ATOM      7  C   LIG    1        0.002  -0.004   0.002  0.00  0.00    -0.032 C 
ATOM      8  C   LIG    1        0.535  -0.729   1.239  0.00  0.00    +0.011 C 
ATOM      9  C   LIG    1       -1.525   0.058   0.066  0.00  0.00    +0.011 C 
ATOM     10  C   LIG    1        0.569   1.416  -0.040  0.00  0.00    +0.011 C 
ENDBRANCH   1   7
BRANCH   4  11
ATOM     11  S   LIG    1        2.426  -0.469  -5.173  0.00  0.00    +0.061 S 
ATOM     12  O   LIG    1        3.685  -1.129  -5.168  0.00  0.00    -0.153 OA
ATOM     13  O   LIG    1        1.496  -0.579  -6.242  0.00  0.00    -0.153 OA
BRANCH  11  14
ATOM     14  C   LIG    1        2.764   1.249  -4.981  0.00  0.00    +0.107 A 
ATOM     15  C   LIG    1        3.943   1.656  -4.392  0.00  0.00    +0.050 A 
ATOM     16  C   LIG    1        4.213   3.018  -4.246  0.00  0.00    +0.089 A 
ATOM     17  C   LIG    1        3.279   3.961  -4.688  0.00  0.00    +0.141 A 
ATOM     18  F   LIG    1        3.528   5.281  -4.546  0.00  0.00    -0.204 F 
ATOM     19  C   LIG    1        2.099   3.537  -5.271  0.00  0.00    +0.041 A 
ATOM     20  C   LIG    1        1.843   2.186  -5.417  0.00  0.00    +0.031 A 
BRANCH  16  21
ATOM     21  C   LIG    1        5.438   3.448  -3.640  0.00  0.00    +0.102 C 
ATOM     22  N   LIG    1        6.409   3.789  -3.160  0.00  0.00    -0.191 NA
ENDBRANCH  16  21
ENDBRANCH  11  14
ENDBRANCH   4  11
BRANCH   2  23
ATOM     23  O   LIG    1        2.574  -1.242  -0.249  0.00  0.00    -0.390 OA
ATOM     24  H   LIG    1        3.541  -1.227  -0.277  0.00  0.00    +0.210 HD
ENDBRANCH   2  23
TORSDOF 5
