REMARK  Name = ZINC000222137748
REMARK                            x       y       z     vdW  Elec       q    Type
REMARK                         _______ _______ _______ _____ _____    ______ ____
ROOT
ATOM      1  N   LIG    1        1.190  -4.245  -2.840  0.00  0.00    -0.180 NA
ATOM      2  C   LIG    1        2.248  -5.081  -2.256  0.00  0.00    +0.109 C 
ATOM      3  C   LIG    1        2.652  -6.149  -3.277  0.00  0.00    +0.018 C 
ATOM      4  C   LIG    1        1.408  -6.926  -3.715  0.00  0.00    +0.014 C 
ATOM      5  C   LIG    1        0.417  -5.970  -4.383  0.00  0.00    +0.073 C 
ATOM      6  C   LIG    1       -0.014  -4.898  -3.370  0.00  0.00    +0.120 C 
ENDROOT
BRANCH   5   7
ATOM      7  C   LIG    1       -0.793  -6.740  -4.844  0.00  0.00    +0.138 A 
ATOM      8  N   LIG    1       -1.606  -7.428  -4.089  0.00  0.00    -0.134 NA
ATOM      9  N   LIG    1       -2.528  -7.955  -4.814  0.00  0.00    -0.138 NA
ATOM     10  C   LIG    1       -2.346  -7.628  -6.064  0.00  0.00    +0.225 A 
ATOM     11  N   LIG    1       -1.242  -6.843  -6.118  0.00  0.00    -0.315 N 
BRANCH  11  12
ATOM     12  C   LIG    1       -0.650  -6.237  -7.313  0.00  0.00    +0.084 C 
ATOM     13  C   LIG    1       -1.673  -5.311  -7.975  0.00  0.00    +0.030 C 
ATOM     14  C   LIG    1       -0.247  -7.337  -8.297  0.00  0.00    +0.030 C 
ENDBRANCH  11  12
ENDBRANCH   5   7
BRANCH   1  15
ATOM     15  S   LIG    1        1.349  -2.597  -2.892  0.00  0.00    +0.032 S 
ATOM     16  O   LIG    1        2.753  -2.381  -2.905  0.00  0.00    -0.158 OA
ATOM     17  O   LIG    1        0.536  -2.202  -3.989  0.00  0.00    -0.158 OA
BRANCH  15  18
ATOM     18  C   LIG    1        0.630  -2.023  -1.329  0.00  0.00    +0.188 C 
BRANCH  18  19
ATOM     19  C   LIG    1        0.718  -0.497  -1.257  0.00  0.00    +0.008 C 
ATOM     20  C   LIG    1        2.187  -0.073  -1.207  0.00  0.00    +0.009 C 
BRANCH  19  21
ATOM     21  C   LIG    1        0.002  -0.004   0.002  0.00  0.00    +0.001 C 
ATOM     22  C   LIG    1       -0.019   1.526   0.010  0.00  0.00    +0.004 C 
ENDBRANCH  19  21
ENDBRANCH  18  19
ENDBRANCH  15  18
ENDBRANCH   1  15
TORSDOF 6
