REMARK  Name = ZINC000069618093
REMARK                            x       y       z     vdW  Elec       q    Type
REMARK                         _______ _______ _______ _____ _____    ______ ____
ROOT
ATOM      1  N   LIG    1        1.311  -4.930  -0.025  0.00  0.00    -0.269 N 
ATOM      2  C   LIG    1        1.325  -6.274   0.069  0.00  0.00    +0.304 C 
ATOM      3  N   LIG    1        2.498  -6.931   0.162  0.00  0.00    -0.296 N 
ATOM      4  H   LIG    1        3.332  -6.436   0.161  0.00  0.00    +0.150 HD
ATOM      5  O   LIG    1        0.279  -6.895   0.071  0.00  0.00    -0.253 OA
ATOM      6  H   LIG    1        2.144  -4.441  -0.104  0.00  0.00    +0.156 HD
ENDROOT
BRANCH   1   7
ATOM      7  C   LIG    1        0.092  -4.239  -0.009  0.00  0.00    +0.036 A 
ATOM      8  C   LIG    1       -0.967  -4.721   0.743  0.00  0.00    +0.039 A 
ATOM      9  C   LIG    1       -2.179  -4.031   0.756  0.00  0.00    +0.074 A 
ATOM     10  C   LIG    1       -2.319  -2.860   0.004  0.00  0.00    +0.136 A 
ATOM     11  F   LIG    1       -3.491  -2.187   0.012  0.00  0.00    -0.205 F 
ATOM     12  C   LIG    1       -1.253  -2.386  -0.738  0.00  0.00    +0.041 A 
ATOM     13  C   LIG    1       -0.054  -3.072  -0.749  0.00  0.00    +0.026 A 
BRANCH   9  14
ATOM     14  C   LIG    1       -3.313  -4.538   1.556  0.00  0.00    +0.247 C 
ATOM     15  N   LIG    1       -3.175  -5.667   2.280  0.00  0.00    -0.314 N 
ATOM     16  C   LIG    1       -4.300  -6.170   3.073  0.00  0.00    +0.128 C 
ATOM     17  H   LIG    1       -2.332  -6.146   2.275  0.00  0.00    +0.149 HD
ATOM     18  O   LIG    1       -4.370  -3.938   1.562  0.00  0.00    -0.270 OA
ENDBRANCH   9  14
ENDBRANCH   1   7
BRANCH   3  19
ATOM     19  C   LIG    1        2.513  -8.393   0.265  0.00  0.00    +0.141 C 
BRANCH  19  20
ATOM     20  C   LIG    1        3.960  -8.882   0.357  0.00  0.00    +0.162 C 
BRANCH  20  21
ATOM     21  C   LIG    1        3.982 -10.389   0.339  0.00  0.00    -0.017 A 
ATOM     22  C   LIG    1        3.699 -11.098   1.491  0.00  0.00    +0.009 A 
ATOM     23  C   LIG    1        3.720 -12.480   1.476  0.00  0.00    +0.039 A 
ATOM     24  C   LIG    1        4.023 -13.154   0.305  0.00  0.00    +0.123 A 
ATOM     25  F   LIG    1        4.043 -14.505   0.288  0.00  0.00    -0.205 F 
ATOM     26  C   LIG    1        4.306 -12.443  -0.849  0.00  0.00    +0.039 A 
ATOM     27  C   LIG    1        4.280 -11.061  -0.832  0.00  0.00    +0.009 A 
ENDBRANCH  20  21
BRANCH  20  28
ATOM     28  O   LIG    1        4.545  -8.412   1.572  0.00  0.00    -0.386 OA
ATOM     29  H   LIG    1        4.091  -8.714   2.371  0.00  0.00    +0.210 HD
ENDBRANCH  20  28
ENDBRANCH  19  20
ENDBRANCH   3  19
TORSDOF 6
