REMARK  Name = ZINC000095991313
REMARK                            x       y       z     vdW  Elec       q    Type
REMARK                         _______ _______ _______ _____ _____    ______ ____
ROOT
ATOM      1  C   LIG    1        1.448  -0.204   3.037  0.00  0.00    +0.218 C 
ATOM      2  N   LIG    1        1.697   0.203   4.298  0.00  0.00    -0.312 N 
ATOM      3  H   LIG    1        0.961   0.388   4.902  0.00  0.00    +0.149 HD
ATOM      4  O   LIG    1        2.369  -0.435   2.282  0.00  0.00    -0.275 OA
ENDROOT
BRANCH   2   5
ATOM      5  C   LIG    1        3.079   0.365   4.756  0.00  0.00    +0.138 C 
BRANCH   5   6
ATOM      6  C   LIG    1        3.081   0.831   6.213  0.00  0.00    +0.164 C 
ATOM      7  C   LIG    1        4.530   1.069   6.709  0.00  0.00    +0.196 C 
ATOM      8  O   LIG    1        4.325   2.049   7.756  0.00  0.00    -0.346 OA
ATOM      9  C   LIG    1        3.256   2.880   7.277  0.00  0.00    +0.171 C 
ATOM     10  C   LIG    1        2.373   3.302   8.453  0.00  0.00    +0.065 C 
ATOM     11  C   LIG    1        3.212   4.090   9.461  0.00  0.00    +0.008 C 
ATOM     12  C   LIG    1        3.792   5.332   8.781  0.00  0.00    -0.014 C 
ATOM     13  C   LIG    1        4.627   6.123   9.790  0.00  0.00    +0.007 C 
ATOM     14  C   LIG    1        4.678   4.907   7.609  0.00  0.00    +0.008 C 
ATOM     15  C   LIG    1        3.841   4.119   6.597  0.00  0.00    +0.065 C 
ATOM     16  O   LIG    1        2.473   2.133   6.333  0.00  0.00    -0.342 OA
ENDBRANCH   5   6
ENDBRANCH   2   5
BRANCH   1  17
ATOM     17  C   LIG    1        0.027  -0.371   2.566  0.00  0.00    +0.134 C 
BRANCH  17  18
ATOM     18  C   LIG    1        0.024  -0.830   1.131  0.00  0.00    +0.005 A 
ATOM     19  C   LIG    1        0.034  -2.115   0.706  0.00  0.00    +0.040 A 
ATOM     20  C   LIG    1        0.055  -3.340   1.583  0.00  0.00    +0.065 C 
ATOM     21  N   LIG    1        0.029  -2.102  -0.644  0.00  0.00    -0.271 N 
ATOM     22  N   LIG    1        0.008  -0.765  -1.062  0.00  0.00    -0.176 NA
ATOM     23  C   LIG    1        0.041  -3.278  -1.517  0.00  0.00    +0.172 C 
ATOM     24  C   LIG    1        0.002  -0.004   0.002  0.00  0.00    +0.064 A 
ATOM     25  C   LIG    1       -0.018   1.503   0.010  0.00  0.00    +0.068 C 
ENDBRANCH  17  18
ENDBRANCH   1  17
TORSDOF 4
