REMARK  Name = ZINC000012974364
REMARK                            x       y       z     vdW  Elec       q    Type
REMARK                         _______ _______ _______ _____ _____    ______ ____
ROOT
ATOM      1  N   LIG    1       -0.567  -1.365  -3.384  0.00  0.00    -0.308 N 
ATOM      2  H   LIG    1       -0.542  -2.291  -3.099  0.00  0.00    +0.149 HD
ATOM      3  C   LIG    1       -1.139  -1.037  -4.560  0.00  0.00    +0.219 C 
ATOM      4  O   LIG    1       -1.171   0.122  -4.917  0.00  0.00    -0.275 OA
ENDROOT
BRANCH   3   5
ATOM      5  C   LIG    1       -1.741  -2.110  -5.430  0.00  0.00    +0.101 C 
ATOM      6  C   LIG    1       -0.654  -3.089  -5.932  0.00  0.00    +0.110 C 
ATOM      7  C   LIG    1       -1.081  -3.425  -7.344  0.00  0.00    +0.221 C 
ATOM      8  N   LIG    1       -1.987  -2.533  -7.777  0.00  0.00    -0.271 N 
ATOM      9  O   LIG    1       -0.666  -4.364  -7.990  0.00  0.00    -0.275 OA
ATOM     10  C   LIG    1       -2.267  -1.517  -6.755  0.00  0.00    +0.127 C 
BRANCH   8  11
ATOM     11  C   LIG    1       -2.588  -2.568  -9.041  0.00  0.00    +0.036 A 
ATOM     12  C   LIG    1       -3.600  -1.671  -9.355  0.00  0.00    +0.024 A 
ATOM     13  C   LIG    1       -4.187  -1.704 -10.605  0.00  0.00    +0.005 A 
ATOM     14  C   LIG    1       -3.775  -2.636 -11.539  0.00  0.00    -0.050 A 
ATOM     15  C   LIG    1       -2.771  -3.535 -11.227  0.00  0.00    +0.005 A 
ATOM     16  C   LIG    1       -4.421  -2.674 -12.900  0.00  0.00    +0.044 C 
ATOM     17  C   LIG    1       -2.176  -3.503  -9.981  0.00  0.00    +0.024 A 
ENDBRANCH   8  11
ENDBRANCH   3   5
BRANCH   1  18
ATOM     18  C   LIG    1        0.018  -0.321  -2.538  0.00  0.00    +0.103 C 
ATOM     19  C   LIG    1        1.452  -0.041  -2.991  0.00  0.00    +0.033 C 
BRANCH  18  20
ATOM     20  C   LIG    1        0.025  -0.783  -1.104  0.00  0.00    +0.013 A 
ATOM     21  C   LIG    1        0.027   0.014  -0.011  0.00  0.00    +0.041 A 
ATOM     22  N   LIG    1        0.040  -0.781   1.079  0.00  0.00    -0.271 N 
ATOM     23  C   LIG    1        0.047  -0.333   2.474  0.00  0.00    +0.172 C 
ATOM     24  N   LIG    1        0.037  -2.112   0.641  0.00  0.00    -0.179 NA
ATOM     25  C   LIG    1        0.023   1.521  -0.010  0.00  0.00    +0.065 C 
ATOM     26  C   LIG    1        0.031  -2.112  -0.667  0.00  0.00    +0.140 A 
ENDBRANCH  18  20
ENDBRANCH   1  18
TORSDOF 4
