REMARK  Name = ZINC000095989000
REMARK                            x       y       z     vdW  Elec       q    Type
REMARK                         _______ _______ _______ _____ _____    ______ ____
ROOT
ATOM      1  C   LIG    1        0.060  -4.243  -0.059  0.00  0.00    +0.245 C 
ATOM      2  O   LIG    1        0.074  -4.872   0.980  0.00  0.00    -0.270 OA
ATOM      3  N   LIG    1        0.064  -4.892  -1.240  0.00  0.00    -0.307 N 
ATOM      4  H   LIG    1        0.053  -4.390  -2.069  0.00  0.00    +0.149 HD
ENDROOT
BRANCH   1   5
ATOM      5  C   LIG    1        0.040  -2.759  -0.027  0.00  0.00    +0.043 A 
ATOM      6  C   LIG    1        0.037  -2.081   1.178  0.00  0.00    +0.083 A 
ATOM      7  C   LIG    1        0.022  -0.672   1.171  0.00  0.00    +0.252 A 
ATOM      8  O   LIG    1        0.020  -0.057   2.224  0.00  0.00    -0.268 OA
ATOM      9  N   LIG    1        0.002  -0.004   0.002  0.00  0.00    -0.318 N 
ATOM     10  C   LIG    1       -0.018   1.461   0.010  0.00  0.00    +0.152 C 
ATOM     11  C   LIG    1        0.005  -0.664  -1.183  0.00  0.00    +0.089 A 
ATOM     12  C   LIG    1        0.024  -2.016  -1.228  0.00  0.00    +0.031 A 
ENDBRANCH   1   5
BRANCH   3  13
ATOM     13  C   LIG    1        0.084  -6.357  -1.270  0.00  0.00    +0.092 C 
ATOM     14  C   LIG    1        1.542  -6.886  -1.260  0.00  0.00    +0.042 C 
ATOM     15  C   LIG    1        1.922  -6.783  -2.758  0.00  0.00    +0.107 C 
ATOM     16  N   LIG    1        0.691  -7.144  -3.485  0.00  0.00    -0.328 N 
ATOM     17  C   LIG    1       -0.469  -6.882  -2.612  0.00  0.00    +0.127 C 
BRANCH  16  18
ATOM     18  C   LIG    1        0.632  -7.651  -4.785  0.00  0.00    +0.030 A 
ATOM     19  C   LIG    1       -0.597  -7.948  -5.362  0.00  0.00    +0.024 A 
ATOM     20  C   LIG    1       -0.652  -8.449  -6.647  0.00  0.00    +0.022 A 
ATOM     21  C   LIG    1        0.515  -8.656  -7.362  0.00  0.00    +0.041 A 
ATOM     22  C   LIG    1        1.740  -8.361  -6.790  0.00  0.00    +0.022 A 
ATOM     23 CL   LIG    1        0.442  -9.285  -8.978  0.00  0.00    -0.084 Cl
ATOM     24  C   LIG    1        1.801  -7.854  -5.507  0.00  0.00    +0.024 A 
ENDBRANCH  16  18
ENDBRANCH   3  13
TORSDOF 3
