REMARK  Name = ZINC000069602038
REMARK                            x       y       z     vdW  Elec       q    Type
REMARK                         _______ _______ _______ _____ _____    ______ ____
ROOT
ATOM      1  O   LIG    1       -0.053   0.308  -0.804  0.00  0.00    -0.270 OA
ATOM      2  C   LIG    1       -0.014   1.212   0.009  0.00  0.00    +0.252 C 
ATOM      3  N   LIG    1       -1.045   1.401   0.856  0.00  0.00    -0.290 N 
ATOM      4  C   LIG    1       -1.089   2.562   1.764  0.00  0.00    +0.136 C 
ATOM      5  C   LIG    1       -1.386   2.069   3.183  0.00  0.00    +0.179 C 
ATOM      6  O   LIG    1       -2.537   1.217   3.171  0.00  0.00    -0.373 OA
ATOM      7  C   LIG    1       -2.369   0.046   2.376  0.00  0.00    +0.139 C 
ATOM      8  C   LIG    1       -3.592  -0.864   2.460  0.00  0.00    +0.033 C 
ATOM      9  C   LIG    1       -3.335  -2.119   1.618  0.00  0.00    +0.003 C 
ATOM     10  C   LIG    1       -3.072  -1.727   0.164  0.00  0.00    +0.002 C 
ATOM     11  C   LIG    1       -1.866  -0.787   0.084  0.00  0.00    +0.025 C 
ATOM     12  C   LIG    1       -2.173   0.463   0.909  0.00  0.00    +0.105 C 
ENDROOT
BRANCH   2  13
ATOM     13  C   LIG    1        1.155   2.103   0.063  0.00  0.00    +0.101 A 
ATOM     14  C   LIG    1        0.988   3.510   0.131  0.00  0.00    +0.261 A 
ATOM     15  N   LIG    1        2.070   4.310   0.185  0.00  0.00    -0.318 N 
ATOM     16  H   LIG    1        1.951   5.271   0.236  0.00  0.00    +0.169 HD
ATOM     17  C   LIG    1        3.322   3.794   0.165  0.00  0.00    +0.123 A 
ATOM     18  C   LIG    1        3.531   2.455   0.094  0.00  0.00    +0.031 A 
ATOM     19  O   LIG    1       -0.131   3.993   0.151  0.00  0.00    -0.267 OA
ATOM     20  C   LIG    1        2.446   1.579   0.042  0.00  0.00    +0.020 A 
BRANCH  17  21
ATOM     21  C   LIG    1        4.506   4.725   0.221  0.00  0.00    +0.432 C 
ATOM     22  F   LIG    1        4.459   5.470   1.404  0.00  0.00    -0.164 F 
ATOM     23  F   LIG    1        5.689   3.978   0.187  0.00  0.00    -0.164 F 
ATOM     24  F   LIG    1        4.471   5.591  -0.877  0.00  0.00    -0.164 F 
ENDBRANCH  17  21
ENDBRANCH   2  13
TORSDOF 2
