REMARK  Name = ZINC000012981889
REMARK                            x       y       z     vdW  Elec       q    Type
REMARK                         _______ _______ _______ _____ _____    ______ ____
ROOT
ATOM      1  N   LIG    1       -1.372  -0.511   0.012  0.00  0.00    -0.306 N 
ATOM      2  H   LIG    1       -1.794  -0.752   0.852  0.00  0.00    +0.149 HD
ATOM      3  C   LIG    1       -2.051  -0.643  -1.145  0.00  0.00    +0.255 C 
ATOM      4  O   LIG    1       -1.524  -0.341  -2.194  0.00  0.00    -0.272 OA
ENDROOT
BRANCH   3   5
ATOM      5  C   LIG    1       -3.465  -1.164  -1.134  0.00  0.00    +0.263 C 
ATOM      6  C   LIG    1       -4.417  -0.154  -0.452  0.00  0.00    +0.093 C 
ATOM      7  C   LIG    1       -4.919   0.651  -1.635  0.00  0.00    -0.002 A 
ATOM      8  C   LIG    1       -5.569   1.862  -1.720  0.00  0.00    +0.007 A 
ATOM      9  C   LIG    1       -5.912   2.377  -2.957  0.00  0.00    +0.000 A 
ATOM     10  C   LIG    1       -5.600   1.672  -4.105  0.00  0.00    +0.004 A 
ATOM     11  C   LIG    1       -4.952   0.457  -4.022  0.00  0.00    +0.046 A 
ATOM     12  C   LIG    1       -4.606  -0.070  -2.780  0.00  0.00    +0.125 A 
ATOM     13  O   LIG    1       -3.987  -1.247  -2.471  0.00  0.00    -0.479 OA
ENDBRANCH   3   5
BRANCH   1  14
ATOM     14  C   LIG    1        0.002  -0.004   0.002  0.00  0.00    +0.100 C 
ATOM     15  C   LIG    1       -0.019   1.526   0.010  0.00  0.00    +0.033 C 
BRANCH  14  16
ATOM     16  C   LIG    1        0.731  -0.503   1.223  0.00  0.00    -0.027 A 
ATOM     17  C   LIG    1        0.081  -0.558   2.442  0.00  0.00    +0.007 A 
ATOM     18  C   LIG    1        0.749  -1.016   3.562  0.00  0.00    +0.027 A 
ATOM     19  C   LIG    1        2.068  -1.420   3.463  0.00  0.00    +0.088 A 
ATOM     20  C   LIG    1        2.718  -1.366   2.244  0.00  0.00    +0.027 A 
ATOM     21  C   LIG    1        2.048  -0.911   1.123  0.00  0.00    +0.007 A 
BRANCH  19  22
ATOM     22  S   LIG    1        2.920  -2.003   4.890  0.00  0.00    -0.006 S 
ATOM     23  O   LIG    1        2.255  -1.374   5.977  0.00  0.00    -0.170 OA
ATOM     24  C   LIG    1        2.612  -3.790   4.903  0.00  0.00    +0.200 C 
ATOM     25  O   LIG    1        4.288  -1.735   4.615  0.00  0.00    -0.170 OA
ENDBRANCH  19  22
ENDBRANCH  14  16
ENDBRANCH   1  14
TORSDOF 4
