REMARK  Name = ZINC000069615759
REMARK                            x       y       z     vdW  Elec       q    Type
REMARK                         _______ _______ _______ _____ _____    ______ ____
ROOT
ATOM      1  N   LIG    1        1.069  -1.350  -1.764  0.00  0.00    -0.290 NA
ENDROOT
BRANCH   1   2
ATOM      2  C   LIG    1        0.847  -0.291  -0.771  0.00  0.00    +0.082 C 
ATOM      3  C   LIG    1       -0.541  -0.456  -0.149  0.00  0.00    +0.020 C 
ENDBRANCH   1   2
BRANCH   1   4
ATOM      4  C   LIG    1        0.971  -2.680  -1.146  0.00  0.00    +0.181 C 
BRANCH   4   5
ATOM      5  C   LIG    1        2.102  -2.863  -0.167  0.00  0.00    +0.231 C 
ATOM      6  N   LIG    1        2.216  -4.015   0.523  0.00  0.00    -0.282 N 
ATOM      7  H   LIG    1        1.544  -4.708   0.424  0.00  0.00    +0.155 HD
ATOM      8  O   LIG    1        2.910  -1.974  -0.001  0.00  0.00    -0.274 OA
BRANCH   6   9
ATOM      9  C   LIG    1        3.309  -4.213   1.387  0.00  0.00    +0.077 A 
ATOM     10  C   LIG    1        3.787  -3.300   2.337  0.00  0.00    +0.081 A 
ATOM     11  N   LIG    1        4.811  -3.839   2.948  0.00  0.00    -0.177 NA
ATOM     12  N   LIG    1        5.029  -5.111   2.404  0.00  0.00    -0.280 N 
ATOM     13  H   LIG    1        5.727  -5.732   2.667  0.00  0.00    +0.189 HD
ATOM     14  C   LIG    1        3.213  -1.934   2.615  0.00  0.00    +0.069 C 
ATOM     15  C   LIG    1        4.093  -5.321   1.444  0.00  0.00    +0.054 A 
ATOM     16  C   LIG    1        3.950  -6.557   0.594  0.00  0.00    +0.067 C 
ENDBRANCH   6   9
ENDBRANCH   4   5
ENDBRANCH   1   4
BRANCH   1  17
ATOM     17  C   LIG    1        0.133  -1.222  -2.888  0.00  0.00    +0.123 C 
BRANCH  17  18
ATOM     18  C   LIG    1        0.583  -0.104  -3.792  0.00  0.00    +0.012 A 
ATOM     19  C   LIG    1       -0.014   1.139  -3.703  0.00  0.00    +0.009 A 
ATOM     20  C   LIG    1        0.397   2.167  -4.532  0.00  0.00    +0.004 A 
ATOM     21  C   LIG    1        1.405   1.954  -5.453  0.00  0.00    +0.049 A 
ATOM     22  C   LIG    1        2.008   0.709  -5.548  0.00  0.00    +0.162 A 
ATOM     23  O   LIG    1        2.997   0.514  -6.462  0.00  0.00    -0.485 OA
ATOM     24  C   LIG    1        3.830  -0.634  -6.276  0.00  0.00    +0.270 C 
ATOM     25  C   LIG    1        2.931  -1.839  -5.968  0.00  0.00    +0.270 C 
ATOM     26  O   LIG    1        2.185  -1.549  -4.780  0.00  0.00    -0.485 OA
ATOM     27  C   LIG    1        1.601  -0.322  -4.709  0.00  0.00    +0.166 A 
ENDBRANCH  17  18
ENDBRANCH   1  17
TORSDOF 6
