REMARK  Name = ZINC000095992096
REMARK                            x       y       z     vdW  Elec       q    Type
REMARK                         _______ _______ _______ _____ _____    ______ ____
ROOT
ATOM      1  N   LIG    1       -0.275  -2.479   4.792  0.00  0.00    -0.301 N 
ATOM      2  C   LIG    1       -1.499  -1.940   4.958  0.00  0.00    +0.248 C 
ATOM      3  O   LIG    1       -1.629  -0.732   5.011  0.00  0.00    -0.270 OA
ATOM      4  H   LIG    1       -0.171  -3.443   4.750  0.00  0.00    +0.150 HD
ENDROOT
BRANCH   1   5
ATOM      5  C   LIG    1        0.898  -1.610   4.676  0.00  0.00    +0.141 C 
ATOM      6  C   LIG    1        2.154  -2.374   5.115  0.00  0.00    +0.032 C 
ATOM      7  C   LIG    1        3.398  -1.571   4.722  0.00  0.00    +0.026 C 
ATOM      8  C   LIG    1        3.545  -1.571   3.196  0.00  0.00    +0.145 C 
ATOM      9  N   LIG    1        2.267  -1.180   2.600  0.00  0.00    -0.247 N 
ATOM     10  N   LIG    1        2.018  -0.734   1.299  0.00  0.00    -0.155 NA
ATOM     11  C   LIG    1        0.731  -0.503   1.223  0.00  0.00    +0.151 A 
ATOM     12  N   LIG    1        0.170  -0.776   2.403  0.00  0.00    -0.214 NA
ATOM     13  C   LIG    1        1.081  -1.189   3.238  0.00  0.00    +0.148 A 
BRANCH  11  14
ATOM     14  C   LIG    1        0.002  -0.004   0.002  0.00  0.00    +0.075 C 
ATOM     15  C   LIG    1       -0.019   1.526   0.010  0.00  0.00    +0.012 C 
ENDBRANCH  11  14
ENDBRANCH   1   5
BRANCH   2  16
ATOM     16  C   LIG    1       -2.679  -2.814   5.075  0.00  0.00    +0.082 A 
ATOM     17  C   LIG    1       -4.071  -2.391   5.257  0.00  0.00    +0.105 A 
ATOM     18  N   LIG    1       -4.800  -3.482   5.309  0.00  0.00    -0.173 NA
ATOM     19  N   LIG    1       -3.965  -4.596   5.181  0.00  0.00    -0.283 N 
ATOM     20  H   LIG    1       -4.260  -5.520   5.192  0.00  0.00    +0.188 HD
ATOM     21  C   LIG    1       -2.693  -4.193   5.040  0.00  0.00    +0.118 A 
BRANCH  17  22
ATOM     22  C   LIG    1       -4.563  -0.996   5.354  0.00  0.00    +0.003 A 
ATOM     23  C   LIG    1       -3.790  -0.023   5.986  0.00  0.00    +0.010 A 
ATOM     24  C   LIG    1       -4.253   1.274   6.073  0.00  0.00    +0.001 A 
ATOM     25  C   LIG    1       -5.483   1.610   5.536  0.00  0.00    +0.000 A 
ATOM     26  C   LIG    1       -6.255   0.648   4.909  0.00  0.00    +0.001 A 
ATOM     27  C   LIG    1       -5.799  -0.650   4.810  0.00  0.00    +0.010 A 
ENDBRANCH  17  22
ENDBRANCH   2  16
TORSDOF 4
