REMARK  Name = ZINC000082091220
REMARK                            x       y       z     vdW  Elec       q    Type
REMARK                         _______ _______ _______ _____ _____    ______ ____
ROOT
ATOM      1  C   LIG    1        2.881  -2.427  -4.094  0.00  0.00    +0.252 C 
ATOM      2  N   LIG    1        2.875  -3.761  -4.285  0.00  0.00    -0.294 N 
ATOM      3  C   LIG    1        2.338  -4.663  -3.257  0.00  0.00    +0.108 C 
ATOM      4  C   LIG    1        3.398  -5.717  -2.922  0.00  0.00    +0.019 C 
ATOM      5  C   LIG    1        3.834  -6.421  -4.209  0.00  0.00    +0.003 C 
ATOM      6  C   LIG    1        4.454  -5.400  -5.166  0.00  0.00    +0.022 C 
ATOM      7  C   LIG    1        3.401  -4.342  -5.528  0.00  0.00    +0.078 C 
ATOM      8  O   LIG    1        3.261  -1.687  -4.981  0.00  0.00    -0.270 OA
ENDROOT
BRANCH   1   9
ATOM      9  C   LIG    1        2.426  -1.865  -2.810  0.00  0.00    +0.098 A 
ATOM     10  C   LIG    1        1.383  -2.471  -2.097  0.00  0.00    +0.023 A 
ATOM     11  C   LIG    1        0.992  -1.908  -0.899  0.00  0.00    +0.068 A 
ATOM     12  C   LIG    1        1.639  -0.765  -0.439  0.00  0.00    +0.218 A 
ATOM     13  N   LIG    1        2.619  -0.208  -1.133  0.00  0.00    -0.177 NA
ATOM     14  C   LIG    1        3.031  -0.714  -2.282  0.00  0.00    +0.230 A 
BRANCH  12  15
ATOM     15  O   LIG    1        1.256  -0.211   0.737  0.00  0.00    -0.480 OA
ATOM     16  C   LIG    1        1.951   0.965   1.157  0.00  0.00    +0.279 C 
ENDBRANCH  12  15
BRANCH  14  17
ATOM     17  O   LIG    1        4.040  -0.115  -2.957  0.00  0.00    -0.479 OA
ATOM     18  C   LIG    1        4.613   1.053  -2.365  0.00  0.00    +0.279 C 
ENDBRANCH  14  17
ENDBRANCH   1   9
BRANCH   7  19
ATOM     19  C   LIG    1        4.047  -3.244  -6.375  0.00  0.00    +0.046 C 
BRANCH  19  20
ATOM     20  C   LIG    1        4.642  -3.861  -7.643  0.00  0.00    +0.145 C 
BRANCH  20  21
ATOM     21  N   LIG    1        5.151  -2.796  -8.511  0.00  0.00    -0.271 N 
ATOM     22  N   LIG    1        4.421  -1.697  -8.982  0.00  0.00    -0.180 NA
ATOM     23  C   LIG    1        5.214  -0.967  -9.724  0.00  0.00    +0.134 A 
ATOM     24  C   LIG    1        6.469  -1.583  -9.758  0.00  0.00    +0.041 A 
ATOM     25  C   LIG    1        6.403  -2.705  -9.005  0.00  0.00    +0.108 A 
ENDBRANCH  20  21
ENDBRANCH  19  20
ENDBRANCH   7  19
TORSDOF 6
