ROOT
ATOM      1  O   LIG    1        0.002  -0.004   0.013  0.00  0.00    -0.268 OA
ATOM      2  C   LIG    1       -0.015   1.212   0.011  0.00  0.00    +0.269 C 
ATOM      3  N   LIG    1        1.143   1.901   0.001  0.00  0.00    -0.280 N 
ATOM      4  H   LIG    1        1.131   2.869  -0.068  0.00  0.00    +0.155 HD
ENDROOT
BRANCH   2   5
ATOM      5  C   LIG    1       -1.303   1.933   0.012  0.00  0.00    +0.154 A 
ATOM      6  C   LIG    1       -2.572   1.188   0.017  0.00  0.00    +0.020 A 
ATOM      7  C   LIG    1       -2.631  -0.201   0.031  0.00  0.00    +0.011 A 
ATOM      8  C   LIG    1       -3.860  -0.826   0.040  0.00  0.00    +0.001 A 
ATOM      9  C   LIG    1       -5.035  -0.086   0.040  0.00  0.00    +0.001 A 
ATOM     10  C   LIG    1       -4.999   1.293   0.032  0.00  0.00    +0.014 A 
ATOM     11  C   LIG    1       -3.769   1.943   0.023  0.00  0.00    +0.050 A 
ATOM     12  C   LIG    1       -3.639   3.406   0.013  0.00  0.00    +0.272 A 
ATOM     13  O   LIG    1       -4.626   4.119   0.013  0.00  0.00    -0.266 OA
ATOM     14  N   LIG    1       -2.401   3.942   0.004  0.00  0.00    -0.242 N 
ATOM     15  H   LIG    1       -2.319   4.908  -0.002  0.00  0.00    +0.192 HD
ATOM     16  N   LIG    1       -1.329   3.243   0.004  0.00  0.00    -0.166 NA
ENDBRANCH   2   5
BRANCH   3  17
ATOM     17  C   LIG    1        2.362   1.222   0.092  0.00  0.00    +0.035 A 
ATOM     18  C   LIG    1        3.424   1.788   0.786  0.00  0.00    +0.024 A 
ATOM     19  C   LIG    1        4.629   1.118   0.876  0.00  0.00    +0.007 A 
ATOM     20  C   LIG    1        4.782  -0.116   0.275  0.00  0.00    -0.026 A 
ATOM     21  C   LIG    1        6.096  -0.847   0.373  0.00  0.00    +0.046 C 
ATOM     22  C   LIG    1        5.839  -2.353   0.438  0.00  0.00    +0.101 C 
ATOM     23  C   LIG    1        4.882  -2.757  -0.651  0.00  0.00    +0.218 C 
ATOM     24  N   LIG    1        3.882  -1.939  -1.026  0.00  0.00    -0.285 N 
ATOM     25  H   LIG    1        3.266  -2.219  -1.722  0.00  0.00    +0.155 HD
ATOM     26  O   LIG    1        5.014  -3.832  -1.196  0.00  0.00    -0.275 OA
ATOM     27  C   LIG    1        3.724  -0.688  -0.421  0.00  0.00    +0.038 A 
ATOM     28  C   LIG    1        2.511  -0.021  -0.508  0.00  0.00    +0.047 A 
ENDBRANCH   3  17
TORSDOF 2
