REMARK  Name = ZINC000030952680
REMARK                            x       y       z     vdW  Elec       q    Type
REMARK                         _______ _______ _______ _____ _____    ______ ____
ROOT
ATOM      1  O   LIG    1        0.002  -0.004   0.013  0.00  0.00    -0.268 OA
ATOM      2  C   LIG    1       -0.015   1.212   0.011  0.00  0.00    +0.269 C 
ATOM      3  N   LIG    1        1.143   1.901   0.001  0.00  0.00    -0.280 N 
ATOM      4  H   LIG    1        1.131   2.869  -0.068  0.00  0.00    +0.155 HD
ENDROOT
BRANCH   3  17
ATOM     17  C   LIG    1        2.362   1.222   0.092  0.00  0.00    +0.035 A 
ATOM     18  C   LIG    1        3.424   1.788   0.786  0.00  0.00    +0.024 A 
ATOM     19  C   LIG    1        4.629   1.118   0.876  0.00  0.00    +0.007 A 
ATOM     20  C   LIG    1        4.782  -0.116   0.275  0.00  0.00    -0.026 A 
ATOM     21  C   LIG    1        6.096  -0.847   0.373  0.00  0.00    +0.046 C 
ATOM     22  C   LIG    1        5.839  -2.353   0.438  0.00  0.00    +0.101 C 
ATOM     23  C   LIG    1        4.882  -2.757  -0.651  0.00  0.00    +0.218 C 
ATOM     24  N   LIG    1        3.882  -1.939  -1.026  0.00  0.00    -0.285 N 
ATOM     25  H   LIG    1        3.266  -2.219  -1.722  0.00  0.00    +0.155 HD
ATOM     26  O   LIG    1        5.014  -3.832  -1.196  0.00  0.00    -0.275 OA
ATOM     27  C   LIG    1        3.724  -0.688  -0.421  0.00  0.00    +0.038 A 
ATOM     28  C   LIG    1        2.511  -0.021  -0.508  0.00  0.00    +0.047 A 
ENDBRANCH   3  17
TORSDOF 2
