REMARK  Name = ZINC000030952680
REMARK                            x       y       z     vdW  Elec       q    Type
REMARK                         _______ _______ _______ _____ _____    ______ ____
ROOT
ATOM      1  O   LIG    1        0.002  -0.004   0.013  0.00  0.00    -0.268 OA
ATOM      2  C   LIG    1       -0.015   1.212   0.011  0.00  0.00    +0.269 C 
ATOM      3  N   LIG    1        1.143   1.901   0.001  0.00  0.00    -0.280 N 
ATOM      4  H   LIG    1        1.131   2.869  -0.068  0.00  0.00    +0.155 HD
ENDROOT
BRANCH   2   5
ATOM      5  C   LIG    1       -1.303   1.933   0.012  0.00  0.00    +0.154 A 
ATOM      6  C   LIG    1       -2.572   1.188   0.017  0.00  0.00    +0.020 A 
ATOM      7  C   LIG    1       -2.631  -0.201   0.031  0.00  0.00    +0.011 A 
ATOM      8  C   LIG    1       -3.860  -0.826   0.040  0.00  0.00    +0.001 A 
ATOM      9  C   LIG    1       -5.035  -0.086   0.040  0.00  0.00    +0.001 A 
ATOM     10  C   LIG    1       -4.999   1.293   0.032  0.00  0.00    +0.014 A 
ATOM     11  C   LIG    1       -3.769   1.943   0.023  0.00  0.00    +0.050 A 
ATOM     12  C   LIG    1       -3.639   3.406   0.013  0.00  0.00    +0.272 A 
ATOM     13  O   LIG    1       -4.626   4.119   0.013  0.00  0.00    -0.266 OA
ATOM     14  N   LIG    1       -2.401   3.942   0.004  0.00  0.00    -0.242 N 
ATOM     15  H   LIG    1       -2.319   4.908  -0.002  0.00  0.00    +0.192 HD
ATOM     16  N   LIG    1       -1.329   3.243   0.004  0.00  0.00    -0.166 NA
ENDBRANCH   2   5
TORSDOF 2
