@<TRIPOS>MOLECULE
ligand20_33523.pdbqt
 28 31 0 0 0
SMALL
GASTEIGER

@<TRIPOS>ATOM
      1  O          0.0020   -0.0040    0.0130 O.2     1  LIG1       -0.2680
      2  C         -0.0150    1.2120    0.0110 C.2     1  LIG1        0.2690
      3  N          1.1430    1.9010    0.0010 N.am    1  LIG1       -0.2800
      4  H          1.1310    2.8690   -0.0680 H       1  LIG1        0.1550
      5  C         -1.3030    1.9330    0.0120 C.ar    1  LIG1        0.1540
      6  C         -2.5720    1.1880    0.0170 C.ar    1  LIG1        0.0200
      7  C         -2.6310   -0.2010    0.0310 C.ar    1  LIG1        0.0110
      8  C         -3.8600   -0.8260    0.0400 C.ar    1  LIG1        0.0010
      9  C         -5.0350   -0.0860    0.0400 C.ar    1  LIG1        0.0010
     10  C         -4.9990    1.2930    0.0320 C.ar    1  LIG1        0.0140
     11  C         -3.7690    1.9430    0.0230 C.ar    1  LIG1        0.0500
     12  C         -3.6390    3.4060    0.0130 C.ar    1  LIG1        0.2720
     13  O         -4.6260    4.1190    0.0130 O.2     1  LIG1       -0.2660
     14  N         -2.4010    3.9420    0.0040 N.ar    1  LIG1       -0.2420
     15  H         -2.3190    4.9080   -0.0020 H       1  LIG1        0.1920
     16  N         -1.3290    3.2430    0.0040 N.ar    1  LIG1       -0.1660
     17  C          2.3620    1.2220    0.0920 C.ar    1  LIG1        0.0350
     18  C          3.4240    1.7880    0.7860 C.ar    1  LIG1        0.0240
     19  C          4.6290    1.1180    0.8760 C.ar    1  LIG1        0.0070
     20  C          4.7820   -0.1160    0.2750 C.ar    1  LIG1       -0.0260
     21  C          6.0960   -0.8470    0.3730 C.3     1  LIG1        0.0460
     22  C          5.8390   -2.3530    0.4380 C.3     1  LIG1        0.1010
     23  C          4.8820   -2.7570   -0.6510 C.2     1  LIG1        0.2180
     24  N          3.8820   -1.9390   -1.0260 N.am    1  LIG1       -0.2850
     25  H          3.2660   -2.2190   -1.7220 H       1  LIG1        0.1550
     26  O          5.0140   -3.8320   -1.1960 O.2     1  LIG1       -0.2750
     27  C          3.7240   -0.6880   -0.4210 C.ar    1  LIG1        0.0380
     28  C          2.5110   -0.0210   -0.5080 C.ar    1  LIG1        0.0470
@<TRIPOS>BOND
     1    25    24    1
     2    26    23    2
     3    24    23   am
     4    24    27    1
     5    23    22    1
     6    28    27   ar
     7    28    17   ar
     8    27    20   ar
     9     4     3    1
    10    15    14    1
    11     3     2   am
    12     3    17    1
    13    14    16   ar
    14    14    12   ar
    15    16     5   ar
    16     2     5    1
    17     2     1    2
    18     5     6   ar
    19    12    13    2
    20    12    11   ar
    21     6    11   ar
    22     6     7   ar
    23    11    10   ar
    24     7     8   ar
    25    10     9   ar
    26     8     9   ar
    27    17    18   ar
    28    20    21    1
    29    20    19   ar
    30    21    22    1
    31    18    19   ar
