USER    Name = ZINC03833800
USER                              x       y       z     vdW  Elec       q    Type
USER                           _______ _______ _______ _____ _____    ______ ____
ROOT
HETATM    1  C2  <0> A  1        0.002  -0.004   0.002  0.00  0.00    +0.193 C 
HETATM    2  C3  <0> A  1       -1.430  -0.533  -0.112  0.00  0.00    +0.170 C 
HETATM    3  C4  <0> A  1       -1.406  -2.064  -0.059  0.00  0.00    +0.161 C 
HETATM    4  C5  <0> A  1       -0.724  -2.509   1.238  0.00  0.00    +0.139 C 
HETATM    5  C6  <0> A  1        0.681  -1.903   1.300  0.00  0.00    +0.304 C 
HETATM    6  O1  <0> A  1        0.589  -0.479   1.215  0.00  0.00    -0.385 OA
ENDROOT
BRANCH   5   7
HETATM    7  O2  <0> A  1        1.303  -2.268   2.534  0.00  0.00    -0.543 OA
HETATM    8  H8  <0> A  1        2.198  -1.918   2.642  0.00  0.00    +0.397 HD
ENDBRANCH   5   7
BRANCH   4   9
HETATM    9  O3  <0> A  1       -0.632  -3.934   1.265  0.00  0.00    -0.557 OA
HETATM   10  H9  <0> A  1       -0.209  -4.286   2.060  0.00  0.00    +0.395 HD
ENDBRANCH   4   9
BRANCH   3  11
HETATM   11  O4  <0> A  1       -2.744  -2.565  -0.094  0.00  0.00    -0.556 OA
HETATM   12  H10 <0> A  1       -2.804  -3.529  -0.064  0.00  0.00    +0.395 HD
ENDBRANCH   3  11
BRANCH   2  13
HETATM   13  O5  <0> A  1       -1.999  -0.106  -1.351  0.00  0.00    -0.550 OA
HETATM   14  H11 <0> A  1       -2.908  -0.406  -1.491  0.00  0.00    +0.395 HD
ENDBRANCH   2  13
BRANCH   1  15
HETATM   15  C1  <0> A  1       -0.019   1.526   0.010  0.00  0.00    +0.225 C 
BRANCH  15  16
HETATM   16  O6  <0> A  1        1.322   2.020   0.000  0.00  0.00    -0.568 OA
HETATM   17  H12 <0> A  1        1.385   2.985   0.005  0.00  0.00    +0.385 HD
ENDBRANCH  15  16
ENDBRANCH   1  15
TORSDOF 6
TER
