@<TRIPOS>MOLECULE
ZINC03833800
 17 17 0 0 0
SMALL
GASTEIGER

@<TRIPOS>ATOM
      1  C2         0.0020   -0.0040    0.0020 C.3     1  <0>1        0.1930
      2  C3        -1.4300   -0.5330   -0.1120 C.3     1  <0>1        0.1700
      3  C4        -1.4060   -2.0640   -0.0590 C.3     1  <0>1        0.1610
      4  C5        -0.7240   -2.5090    1.2380 C.3     1  <0>1        0.1390
      5  C6         0.6810   -1.9030    1.3000 C.3     1  <0>1        0.3040
      6  O1         0.5890   -0.4790    1.2150 O.3     1  <0>1       -0.3850
      7  O2         1.3030   -2.2680    2.5340 O.3     1  <0>1       -0.5430
      8  H8         2.1980   -1.9180    2.6420 H       1  <0>1        0.3970
      9  O3        -0.6320   -3.9340    1.2650 O.3     1  <0>1       -0.5570
     10  H9        -0.2090   -4.2860    2.0600 H       1  <0>1        0.3950
     11  O4        -2.7440   -2.5650   -0.0940 O.3     1  <0>1       -0.5560
     12  H10       -2.8040   -3.5290   -0.0640 H       1  <0>1        0.3950
     13  O5        -1.9990   -0.1060   -1.3510 O.3     1  <0>1       -0.5500
     14  H11       -2.9080   -0.4060   -1.4910 H       1  <0>1        0.3950
     15  C1        -0.0190    1.5260    0.0100 C.3     1  <0>1        0.2250
     16  O6         1.3220    2.0200    0.0000 O.3     1  <0>1       -0.5680
     17  H12        1.3850    2.9850    0.0050 H       1  <0>1        0.3850
@<TRIPOS>BOND
     1    14    13    1
     2    13     2    1
     3     2     3    1
     4     2     1    1
     5    11    12    1
     6    11     3    1
     7     3     4    1
     8    16    17    1
     9    16    15    1
    10     1    15    1
    11     1     6    1
    12     6     5    1
    13     4     9    1
    14     4     5    1
    15     9    10    1
    16     5     7    1
    17     7     8    1
