USER    Name = ZINC01MARC
USER                              x       y       z     vdW  Elec       q    Type
USER                           _______ _______ _______ _____ _____    ______ ____
ROOT
HETATM    1  N4  <0> A  1        3.754  -0.699   2.599  0.00  0.00    +0.000 N 
HETATM    2  C6  <0> A  1        4.232   0.022   1.486  0.00  0.00    +0.000 C 
HETATM    3  O1  <0> A  1        5.144   0.840   1.657  0.00  0.00    +0.000 OA
HETATM    4  H32 <0> A  1        3.236  -1.530   2.470  0.00  0.00    +0.000 HD
ENDROOT
BRANCH   1   5
HETATM    5  C5  <0> A  1        3.644  -0.015   3.855  0.00  0.00    +0.000 C 
BRANCH   5   6
HETATM    6  B1  <0> A  1        3.948  -1.018   5.053  0.00  0.00    +0.000 B 
HETATM    7  O3  <0> A  1        5.352  -1.472   4.934  0.00  0.00    +0.000 OA
HETATM    8  C23 <0> A  1        5.681  -2.305   6.041  0.00  0.00    +0.000 C 
HETATM    9  C24 <0> A  1        4.759  -3.527   6.031  0.00  0.00    +0.000 C 
HETATM   10  C25 <0> A  1        3.306  -3.050   6.118  0.00  0.00    +0.000 C 
HETATM   11  O5  <0> A  1        3.037  -2.191   5.013  0.00  0.00    +0.000 OA
BRANCH   9  12
HETATM   12  O4  <0> A  1        5.058  -4.363   7.148  0.00  0.00    +0.000 OA
HETATM   13  H37 <0> A  1        4.457  -5.147   7.141  0.00  0.00    +0.000 HD
ENDBRANCH   9  12
ENDBRANCH   5   6
BRANCH   5  14
HETATM   14  C4  <0> A  1        2.195   0.587   3.955  0.00  0.00    +0.000 C 
BRANCH  14  15
HETATM   15  C3  <0> A  1        1.094  -0.497   3.810  0.00  0.00    +0.000 C 
BRANCH  15  16
HETATM   16  C2  <0> A  1       -0.311   0.142   3.820  0.00  0.00    +0.000 C 
BRANCH  16  17
HETATM   17  N3  <0> A  1       -1.325  -0.921   3.648  0.00  0.00    +0.000 N 
HETATM   18  H31 <0> A  1       -1.015  -1.888   3.480  0.00  0.00    +0.000 HD
BRANCH  17  20
HETATM   19  N1  <0> A  1       -3.572  -1.576   3.500  0.00  0.00    +1.000 N 
HETATM   20  C1  <0> A  1       -2.740  -0.630   3.667  0.00  0.00    +0.000 C 
HETATM   21  H27 <0> A  1       -3.247  -2.505   3.357  0.00  0.00    +0.000 HD
HETATM   22  H28 <0> A  1       -4.549  -1.386   3.512  0.00  0.00    +0.000 HD
BRANCH  20  23
HETATM   23  N2  <0> A  1       -3.230   0.706   3.872  0.00  0.00    +0.000 N 
HETATM   24  H29 <0> A  1       -2.582   1.490   4.009  0.00  0.00    +0.000 HD
HETATM   25  H30 <0> A  1       -4.246   0.877   3.881  0.00  0.00    +0.000 HD
ENDBRANCH  20  23
ENDBRANCH  17  20
ENDBRANCH  16  17
ENDBRANCH  15  16
ENDBRANCH  14  15
ENDBRANCH   5  14
ENDBRANCH   1   5
BRANCH   2  26
HETATM   26  C7  <0> A  1        3.292   0.226   0.349  0.00  0.00    +0.000 C 
BRANCH  26  27
HETATM   27  N6  <0> A  1        3.935   0.692  -0.879  0.00  0.00    +0.000 N 
HETATM   28  C16 <0> A  1        3.876  -0.019  -2.115  0.00  0.00    +0.000 C 
HETATM   29  O2  <0> A  1        3.670  -1.238  -2.164  0.00  0.00    +0.000 OA
HETATM   30  H36 <0> A  1        4.310   1.608  -0.880  0.00  0.00    +0.000 HD
BRANCH  28  31
HETATM   31  C17 <0> A  1        3.991   0.732  -3.370  0.00  0.00    +0.000 A 
HETATM   32  C18 <0> A  1        4.100   2.122  -3.335  0.00  0.00    +0.000 A 
HETATM   33  C19 <0> A  1        4.154   2.847  -4.516  0.00  0.00    +0.000 A 
HETATM   34  C20 <0> A  1        4.085   2.188  -5.739  0.00  0.00    +0.000 A 
HETATM   35  C21 <0> A  1        3.972   0.804  -5.775  0.00  0.00    +0.000 A 
HETATM   36  C22 <0> A  1        3.927   0.077  -4.589  0.00  0.00    +0.000 A 
ENDBRANCH  28  31
ENDBRANCH  26  27
BRANCH  26  37
HETATM   37  C8  <0> A  1        2.317  -0.968   0.185  0.00  0.00    +0.000 C 
BRANCH  37  38
HETATM   38  C9  <0> A  1        0.956  -0.417  -0.111  0.00  0.00    +0.000 A 
HETATM   39  C10 <0> A  1        0.818   0.826  -0.717  0.00  0.00    +0.000 A 
HETATM   40  C11 <0> A  1       -0.434   1.413  -0.818  0.00  0.00    +0.000 A 
HETATM   41  C12 <0> A  1       -1.546   0.769  -0.293  0.00  0.00    +0.000 A 
HETATM   42  C14 <0> A  1       -1.415  -0.487   0.287  0.00  0.00    +0.000 A 
HETATM   43  C15 <0> A  1       -0.163  -1.084   0.370  0.00  0.00    +0.000 A 
BRANCH  41  44
HETATM   44  C13 <0> A  1       -2.878   1.451  -0.313  0.00  0.00    +0.000 C 
BRANCH  44  45
HETATM   45  N5  <0> A  1       -2.679   2.900  -0.090  0.00  0.00    +1.000 N 
HETATM   46  H33 <0> A  1       -2.124   3.299  -0.860  0.00  0.00    +0.000 HD
HETATM   47  H34 <0> A  1       -3.592   3.370  -0.052  0.00  0.00    +0.000 HD
HETATM   48  H35 <0> A  1       -2.182   3.045   0.803  0.00  0.00    +0.000 HD
ENDBRANCH  44  45
ENDBRANCH  41  44
ENDBRANCH  37  38
ENDBRANCH  26  37
ENDBRANCH   2  26
TORSDOF 16
TER
