@<TRIPOS>MOLECULE
ZINC01MARC
 48 50 0 0 0
SMALL
GASTEIGER

@<TRIPOS>ATOM
      1  N4         3.7540   -0.6990    2.5990 N.am    1  <0>1        0.0000
      2  C6         4.2320    0.0220    1.4860 C.2     1  <0>1        0.0000
      3  O1         5.1440    0.8400    1.6570 O.2     1  <0>1        0.0000
      4  H32        3.2360   -1.5300    2.4700 H       1  <0>1        0.0000
      5  C5         3.6440   -0.0150    3.8550 C.3     1  <0>1        0.0000
      6  B1         3.9480   -1.0180    5.0530 B       1  <0>1        0.0000
      7  O3         5.3520   -1.4720    4.9340 O.3     1  <0>1        0.0000
      8  C23        5.6810   -2.3050    6.0410 C.3     1  <0>1        0.0000
      9  C24        4.7590   -3.5270    6.0310 C.3     1  <0>1        0.0000
     10  C25        3.3060   -3.0500    6.1180 C.3     1  <0>1        0.0000
     11  O5         3.0370   -2.1910    5.0130 O.3     1  <0>1        0.0000
     12  O4         5.0580   -4.3630    7.1480 O.3     1  <0>1        0.0000
     13  H37        4.4570   -5.1470    7.1410 H       1  <0>1        0.0000
     14  C4         2.1950    0.5870    3.9550 C.3     1  <0>1        0.0000
     15  C3         1.0940   -0.4970    3.8100 C.3     1  <0>1        0.0000
     16  C2        -0.3110    0.1420    3.8200 C.3     1  <0>1        0.0000
     17  N3        -1.3250   -0.9210    3.6480 N.pl3   1  <0>1        0.0000
     18  H31       -1.0150   -1.8880    3.4800 H       1  <0>1        0.0000
     19  N1        -3.5720   -1.5760    3.5000 N.pl3   1  <0>1        1.0000
     20  C1        -2.7400   -0.6300    3.6670 C.cat   1  <0>1        0.0000
     21  H27       -3.2470   -2.5050    3.3570 H       1  <0>1        0.0000
     22  H28       -4.5490   -1.3860    3.5120 H       1  <0>1        0.0000
     23  N2        -3.2300    0.7060    3.8720 N.pl3   1  <0>1        0.0000
     24  H29       -2.5820    1.4900    4.0090 H       1  <0>1        0.0000
     25  H30       -4.2460    0.8770    3.8810 H       1  <0>1        0.0000
     26  C7         3.2920    0.2260    0.3490 C.3     1  <0>1        0.0000
     27  N6         3.9350    0.6920   -0.8790 N.am    1  <0>1        0.0000
     28  C16        3.8760   -0.0190   -2.1150 C.2     1  <0>1        0.0000
     29  O2         3.6700   -1.2380   -2.1640 O.2     1  <0>1        0.0000
     30  H36        4.3100    1.6080   -0.8800 H       1  <0>1        0.0000
     31  C17        3.9910    0.7320   -3.3700 C.ar    1  <0>1        0.0000
     32  C18        4.1000    2.1220   -3.3350 C.ar    1  <0>1        0.0000
     33  C19        4.1540    2.8470   -4.5160 C.ar    1  <0>1        0.0000
     34  C20        4.0850    2.1880   -5.7390 C.ar    1  <0>1        0.0000
     35  C21        3.9720    0.8040   -5.7750 C.ar    1  <0>1        0.0000
     36  C22        3.9270    0.0770   -4.5890 C.ar    1  <0>1        0.0000
     37  C8         2.3170   -0.9680    0.1850 C.3     1  <0>1        0.0000
     38  C9         0.9560   -0.4170   -0.1110 C.ar    1  <0>1        0.0000
     39  C10        0.8180    0.8260   -0.7170 C.ar    1  <0>1        0.0000
     40  C11       -0.4340    1.4130   -0.8180 C.ar    1  <0>1        0.0000
     41  C12       -1.5460    0.7690   -0.2930 C.ar    1  <0>1        0.0000
     42  C14       -1.4150   -0.4870    0.2870 C.ar    1  <0>1        0.0000
     43  C15       -0.1630   -1.0840    0.3700 C.ar    1  <0>1        0.0000
     44  C13       -2.8780    1.4510   -0.3130 C.3     1  <0>1        0.0000
     45  N5        -2.6790    2.9000   -0.0900 N.4     1  <0>1        1.0000
     46  H33       -2.1240    3.2990   -0.8600 H       1  <0>1        0.0000
     47  H34       -3.5920    3.3700   -0.0520 H       1  <0>1        0.0000
     48  H35       -2.1820    3.0450    0.8030 H       1  <0>1        0.0000
@<TRIPOS>BOND
     1    35    34   ar
     2    35    36   ar
     3    34    33   ar
     4    36    31   ar
     5    33    32   ar
     6    31    32   ar
     7    31    28    1
     8    29    28    2
     9    28    27   am
    10    30    27    1
    11    27    26    1
    12    46    45    1
    13    40    39   ar
    14    40    41   ar
    15    39    38   ar
    16    44    41    1
    17    44    45    1
    18    41    42   ar
    19    38    37    1
    20    38    43   ar
    21    45    47    1
    22    45    48    1
    23    37    26    1
    24    42    43   ar
    25    26     2    1
    26     2     3    2
    27     2     1   am
    28     4     1    1
    29     1     5    1
    30    21    19    1
    31    18    17    1
    32    19    22    1
    33    19    20    2
    34    17    20    1
    35    17    16    1
    36    20    23    1
    37    15    16    1
    38    15    14    1
    39     5    14    1
    40     5     6    1
    41    23    25    1
    42    23    24    1
    43     7     6    1
    44     7     8    1
    45    11     6    1
    46    11    10    1
    47     9     8    1
    48     9    10    1
    49     9    12    1
    50    13    12    1
