@<TRIPOS>MOLECULE
ZINC09325709
 34 37 0 0 0
SMALL
GASTEIGER

@<TRIPOS>ATOM
      1  C8        -5.3660    4.5590    8.0840 C.ar    1  <0>1        0.2350
      2  C9        -6.5370    5.2840    8.2680 C.ar    1  <0>1       -0.0150
      3  C10       -7.3200    5.6200    7.1830 C.ar    1  <0>1        0.0960
      4  C11       -6.9450    5.2420    5.9030 C.ar    1  <0>1       -0.0020
      5  C12       -5.7850    4.5270    5.7000 C.ar    1  <0>1        0.0780
      6  C13       -4.9810    4.1790    6.7890 C.ar    1  <0>1       -0.1700
      7  C14       -3.7390    3.4140    6.5790 C.2     1  <0>1        0.5740
      8  O3        -3.0420    3.1130    7.5290 O.2     1  <0>1       -0.4960
      9  N2        -3.3760    3.0470    5.3340 N.am    1  <0>1       -0.6040
     10  H13       -3.9320    3.2860    4.5760 H       1  <0>1        0.4280
     11  C15       -2.2090    2.3270    5.1360 C.ar    1  <0>1        0.3440
     12  N3        -1.6950    1.8840    4.0130 N.ar    1  <0>1       -0.5190
     13  C16       -0.5370    1.1890    3.9690 C.ar    1  <0>1        0.0880
     14  C17        0.1220    0.6570    2.8310 C.ar    1  <0>1        0.1900
     15  C18        1.3010   -0.0360    2.9640 C.ar    1  <0>1       -0.0500
     16  C19        1.8910   -0.2290    4.2050 C.ar    1  <0>1        0.1070
     17  C20        1.2740    0.2760    5.3350 C.ar    1  <0>1       -0.0190
     18  C21        0.0910    0.9660    5.2130 C.ar    1  <0>1       -0.1500
     19  S2        -1.0200    1.7660    6.3460 S.2     1  <0>1        0.1470
     20 Cl1         1.9880    0.0390    6.9000 Cl      1  <0>1       -0.0520
     21  O4        -0.4210    0.8310    1.5970 O.3     1  <0>1       -0.2960
     22  C22        0.2900    0.2720    0.4910 C.3     1  <0>1        0.2470
     23  N1        -4.5790    4.2150    9.1750 N.pl3   1  <0>1       -1.0430
     24  H8        -3.6130    4.1990    9.0910 H       1  <0>1        0.4410
     25  S1        -5.2900    3.8310   10.6210 S.O2    1  <0>1        2.6870
     26  O1        -4.2470    3.4020   11.4860 O.2     1  <0>1       -0.9400
     27  O2        -6.1540    4.9110   10.9480 O.2     1  <0>1       -0.9470
     28  C1        -8.8150   -0.9700    9.6590 C.3     1  <0>1        0.1020
     29  C2        -7.9340    0.2290    9.8990 C.ar    1  <0>1       -0.0230
     30  C3        -6.6130    0.0540   10.2670 C.ar    1  <0>1       -0.0080
     31  C4        -5.8060    1.1540   10.4880 C.ar    1  <0>1        0.1340
     32  C5        -6.3190    2.4290   10.3400 C.ar    1  <0>1       -0.6840
     33  C6        -7.6410    2.6040    9.9760 C.ar    1  <0>1        0.1280
     34  C7        -8.4480    1.5040    9.7510 C.ar    1  <0>1       -0.0080
@<TRIPOS>BOND
     1    22    21    1
     2    21    14    1
     3    14    15   ar
     4    14    13   ar
     5    15    16   ar
     6    13    12   ar
     7    13    18   ar
     8    12    11   ar
     9    16    17   ar
    10    10     9    1
    11    11     9    1
    12    11    19   ar
    13    18    17   ar
    14    18    19   ar
    15     9     7   am
    16    17    20    1
    17     5     4   ar
    18     5     6   ar
    19     4     3   ar
    20     7     6    1
    21     7     8    2
    22     6     1   ar
    23     3     2   ar
    24     1     2   ar
    25     1    23    1
    26    24    23    1
    27    23    25    1
    28    28    29    1
    29    34    29   ar
    30    34    33   ar
    31    29    30   ar
    32    33    32   ar
    33    30    31   ar
    34    32    31   ar
    35    32    25    1
    36    25    27    2
    37    25    26    2
