USER    Name = ZINC09325709
USER                              x       y       z     vdW  Elec       q    Type
USER                           _______ _______ _______ _____ _____    ______ ____
ROOT
HETATM    1  C8  <0> A  1       -5.366   4.559   8.084  0.00  0.00    +0.235 A 
HETATM    2  C9  <0> A  1       -6.537   5.284   8.268  0.00  0.00    -0.015 A 
HETATM    3  C10 <0> A  1       -7.320   5.620   7.183  0.00  0.00    +0.096 A 
HETATM    4  C11 <0> A  1       -6.945   5.242   5.903  0.00  0.00    -0.002 A 
HETATM    5  C12 <0> A  1       -5.785   4.527   5.700  0.00  0.00    +0.078 A 
HETATM    6  C13 <0> A  1       -4.981   4.179   6.789  0.00  0.00    -0.170 A 
ENDROOT
BRANCH   6   7
HETATM    7  C14 <0> A  1       -3.739   3.414   6.579  0.00  0.00    +0.574 C 
HETATM    8  O3  <0> A  1       -3.042   3.113   7.529  0.00  0.00    -0.496 OA
HETATM    9  N2  <0> A  1       -3.376   3.047   5.334  0.00  0.00    -0.604 N 
HETATM   10  H13 <0> A  1       -3.932   3.286   4.576  0.00  0.00    +0.428 HD
BRANCH   9  11
HETATM   11  C15 <0> A  1       -2.209   2.327   5.136  0.00  0.00    +0.344 A 
HETATM   12  N3  <0> A  1       -1.695   1.884   4.013  0.00  0.00    -0.519 NA
HETATM   13  C16 <0> A  1       -0.537   1.189   3.969  0.00  0.00    +0.088 A 
HETATM   14  C17 <0> A  1        0.122   0.657   2.831  0.00  0.00    +0.190 A 
HETATM   15  C18 <0> A  1        1.301  -0.036   2.964  0.00  0.00    -0.050 A 
HETATM   16  C19 <0> A  1        1.891  -0.229   4.205  0.00  0.00    +0.107 A 
HETATM   17  C20 <0> A  1        1.274   0.276   5.335  0.00  0.00    -0.019 A 
HETATM   18  C21 <0> A  1        0.091   0.966   5.213  0.00  0.00    -0.150 A 
HETATM   19  S2  <0> A  1       -1.020   1.766   6.346  0.00  0.00    +0.147 S 
HETATM   20 Cl1  <0> A  1        1.988   0.039   6.900  0.00  0.00    -0.052 Cl
BRANCH  14  21
HETATM   21  O4  <0> A  1       -0.421   0.831   1.597  0.00  0.00    -0.296 OA
HETATM   22  C22 <0> A  1        0.290   0.272   0.491  0.00  0.00    +0.247 C 
ENDBRANCH  14  21
ENDBRANCH   9  11
ENDBRANCH   6   7
BRANCH   1  23
HETATM   23  N1  <0> A  1       -4.579   4.215   9.175  0.00  0.00    -1.043 N 
HETATM   24  H8  <0> A  1       -3.613   4.199   9.091  0.00  0.00    +0.441 HD
BRANCH  23  25
HETATM   25  S1  <0> A  1       -5.290   3.831  10.621  0.00  0.00    +2.687 S 
HETATM   26  O1  <0> A  1       -4.247   3.402  11.486  0.00  0.00    -0.940 OA
HETATM   27  O2  <0> A  1       -6.154   4.911  10.948  0.00  0.00    -0.947 OA
BRANCH  25  32
HETATM   28  C1  <0> A  1       -8.815  -0.970   9.659  0.00  0.00    +0.102 C 
HETATM   29  C2  <0> A  1       -7.934   0.229   9.899  0.00  0.00    -0.023 A 
HETATM   30  C3  <0> A  1       -6.613   0.054  10.267  0.00  0.00    -0.008 A 
HETATM   31  C4  <0> A  1       -5.806   1.154  10.488  0.00  0.00    +0.134 A 
HETATM   32  C5  <0> A  1       -6.319   2.429  10.340  0.00  0.00    -0.684 A 
HETATM   33  C6  <0> A  1       -7.641   2.604   9.976  0.00  0.00    +0.128 A 
HETATM   34  C7  <0> A  1       -8.448   1.504   9.751  0.00  0.00    -0.008 A 
ENDBRANCH  25  32
ENDBRANCH  23  25
ENDBRANCH   1  23
TORSDOF 6
TER
